New Load.1323503E-B_1 phases=1 bus=X_1323503E_T_05060_SLD_1.2 kV=0.24 xfkVA=5.583 pf=0.964 !status=variable mode=4 CVRwatts=0.8 CVRvars=3 class=1 numcust=0 yearly=LoadProfile xfkVA=38
New Load.1323503E-B_2 phases=1 bus=X_1323503E_T_05060_SLD_2.2 kV=0.24 xfkVA=5.583 pf=0.964 !status=variable mode=4 CVRwatts=0.8 CVRvars=3 class=1 numcust=0 yearly=LoadProfile xfkVA=38
New Load.1323503E-B_3 phases=1 bus=X_1323503E_T_05060_SLD_3.2 kV=0.24 xfkVA=5.583 pf=0.964 !status=variable mode=4 CVRwatts=0.8 CVRvars=3 class=1 numcust=0 yearly=LoadProfile xfkVA=38
New Load.1323503E-B_4 phases=1 bus=X_1323503E_T_05060_SLD_4.2 kV=0.24 xfkVA=5.583 pf=0.964 !status=variable mode=4 CVRwatts=0.8 CVRvars=3 class=1 numcust=0 yearly=LoadProfile xfkVA=38
New Load.4417776E-ABC_1 phases=3 bus=X_4417776E_T_05060_SLD_1.1.2.3 kV=0.48 xfkVA=4.318 pf=0.941 !status=variable mode=4 CVRwatts=0.8 CVRvars=3 class=1 numcust=0 yearly=LoadProfile xfkVA=45
New Load.4417776E-ABC_2 phases=3 bus=X_4417776E_T_05060_SLD_2.1.2.3 kV=0.48 xfkVA=4.318 pf=0.941 !status=variable mode=4 CVRwatts=0.8 CVRvars=3 class=1 numcust=0 yearly=LoadProfile xfkVA=45
New Load.4417776E-ABC_3 phases=3 bus=X_4417776E_T_05060_SLD_3.1.2.3 kV=0.48 xfkVA=4.318 pf=0.941 !status=variable mode=4 CVRwatts=0.8 CVRvars=3 class=1 numcust=0 yearly=LoadProfile xfkVA=45
New Load.4417776E-ABC_4 phases=3 bus=X_4417776E_T_05060_SLD_4.1.2.3 kV=0.48 xfkVA=4.318 pf=0.941 !status=variable mode=4 CVRwatts=0.8 CVRvars=3 class=1 numcust=0 yearly=LoadProfile xfkVA=45
New Load.4417776E-ABC_5 phases=3 bus=X_4417776E_T_05060_SLD_5.1.2.3 kV=0.48 xfkVA=4.318 pf=0.941 !status=variable mode=4 CVRwatts=0.8 CVRvars=3 class=1 numcust=0 yearly=LoadProfile xfkVA=45
New Load.121642E-ABC_1 phases=3 bus=X_121642E_T_05060_SLD_1.1.2.3 kV=0.48 xfkVA=3.998 pf=0.941 !status=variable mode=4 CVRwatts=0.8 CVRvars=3 class=1 numcust=0 yearly=LoadProfile xfkVA=25
New Load.121642E-ABC_2 phases=3 bus=X_121642E_T_05060_SLD_2.1.2.3 kV=0.48 xfkVA=3.998 pf=0.941 !status=variable mode=4 CVRwatts=0.8 CVRvars=3 class=1 numcust=0 yearly=LoadProfile xfkVA=25
New Load.121642E-ABC_3 phases=3 bus=X_121642E_T_05060_SLD_3.1.2.3 kV=0.48 xfkVA=3.998 pf=0.941 !status=variable mode=4 CVRwatts=0.8 CVRvars=3 class=1 numcust=0 yearly=LoadProfile xfkVA=25
New Load.533712ET1-A_1 phases=1 bus=X_533712ET1_T_05060_SLD_1.1 kV=0.24 xfkVA=3.827 pf=0.967 !status=variable mode=4 CVRwatts=0.8 CVRvars=3 class=1 numcust=0 yearly=LoadProfile xfkVA=25
New Load.533712ET1-A_2 phases=1 bus=X_533712ET1_T_05060_SLD_2.1 kV=0.24 xfkVA=3.827 pf=0.967 !status=variable mode=4 CVRwatts=0.8 CVRvars=3 class=1 numcust=0 yearly=LoadProfile xfkVA=25
New Load.533712ET1-A_3 phases=1 bus=X_533712ET1_T_05060_SLD_3.1 kV=0.24 xfkVA=3.827 pf=0.967 !status=variable mode=4 CVRwatts=0.8 CVRvars=3 class=1 numcust=0 yearly=LoadProfile xfkVA=25
New Load.4082101E-C_1 phases=1 bus=X_4082101E_T_05060_SLD_1.3 kV=0.24 xfkVA=5.41 pf=0.95 !status=variable mode=4 CVRwatts=0.8 CVRvars=3 class=1 numcust=0 yearly=LoadProfile xfkVA=25
New Load.4082101E-C_2 phases=1 bus=X_4082101E_T_05060_SLD_2.3 kV=0.24 xfkVA=5.41 pf=0.95 !status=variable mode=4 CVRwatts=0.8 CVRvars=3 class=1 numcust=0 yearly=LoadProfile xfkVA=25
New Load.4082101E-C_3 phases=1 bus=X_4082101E_T_05060_SLD_3.3 kV=0.24 xfkVA=5.41 pf=0.95 !status=variable mode=4 CVRwatts=0.8 CVRvars=3 class=1 numcust=0 yearly=LoadProfile xfkVA=25
New Load.1041675E-ABC_1 phases=3 bus=X_1041675E_T_05060_SLD_1.1.2.3 kV=0.48 xfkVA=3.598 pf=0.941 !status=variable mode=4 CVRwatts=0.8 CVRvars=3 class=1 numcust=0 yearly=LoadProfile xfkVA=15
New Load.1041675E-ABC_2 phases=3 bus=X_1041675E_T_05060_SLD_2.1.2.3 kV=0.48 xfkVA=3.598 pf=0.941 !status=variable mode=4 CVRwatts=0.8 CVRvars=3 class=1 numcust=0 yearly=LoadProfile xfkVA=15
New Load.1006082E-A_1 phases=1 bus=X_1006082E_T_05060_SLD_1.1 kV=0.24 xfkVA=3.827 pf=0.967 !status=variable mode=4 CVRwatts=0.8 CVRvars=3 class=1 numcust=0 yearly=LoadProfile xfkVA=25
New Load.1006082E-A_2 phases=1 bus=X_1006082E_T_05060_SLD_2.1 kV=0.24 xfkVA=3.827 pf=0.967 !status=variable mode=4 CVRwatts=0.8 CVRvars=3 class=1 numcust=0 yearly=LoadProfile xfkVA=25
New Load.1006082E-A_3 phases=1 bus=X_1006082E_T_05060_SLD_3.1 kV=0.24 xfkVA=3.827 pf=0.967 !status=variable mode=4 CVRwatts=0.8 CVRvars=3 class=1 numcust=0 yearly=LoadProfile xfkVA=25
New Load.4160253E-ABC_1 phases=3 bus=X_4160253E_T_05060_SLD_1.1.2.3 kV=0.48 xfkVA=4.798 pf=0.941 !status=variable mode=4 CVRwatts=0.8 CVRvars=3 class=1 numcust=0 yearly=LoadProfile xfkVA=20
New Load.4160253E-ABC_2 phases=3 bus=X_4160253E_T_05060_SLD_2.1.2.3 kV=0.48 xfkVA=4.798 pf=0.941 !status=variable mode=4 CVRwatts=0.8 CVRvars=3 class=1 numcust=0 yearly=LoadProfile xfkVA=20
New Load.1159236E-B_1 phases=1 bus=X_1159236E_T_05060_SLD_1.2 kV=0.24 xfkVA=4.963 pf=0.964 !status=variable mode=4 CVRwatts=0.8 CVRvars=3 class=1 numcust=0 yearly=LoadProfile xfkVA=25
New Load.1159236E-B_2 phases=1 bus=X_1159236E_T_05060_SLD_2.2 kV=0.24 xfkVA=4.963 pf=0.964 !status=variable mode=4 CVRwatts=0.8 CVRvars=3 class=1 numcust=0 yearly=LoadProfile xfkVA=25
New Load.1159236E-B_3 phases=1 bus=X_1159236E_T_05060_SLD_3.2 kV=0.24 xfkVA=4.963 pf=0.964 !status=variable mode=4 CVRwatts=0.8 CVRvars=3 class=1 numcust=0 yearly=LoadProfile xfkVA=25
New Load.1429043E-B_1 phases=1 bus=X_1429043E_T_05060_SLD_1.2 kV=0.24 xfkVA=4.963 pf=0.964 !status=variable mode=4 CVRwatts=0.8 CVRvars=3 class=1 numcust=0 yearly=LoadProfile xfkVA=25
New Load.1429043E-B_2 phases=1 bus=X_1429043E_T_05060_SLD_2.2 kV=0.24 xfkVA=4.963 pf=0.964 !status=variable mode=4 CVRwatts=0.8 CVRvars=3 class=1 numcust=0 yearly=LoadProfile xfkVA=25
New Load.1429043E-B_3 phases=1 bus=X_1429043E_T_05060_SLD_3.2 kV=0.24 xfkVA=4.963 pf=0.964 !status=variable mode=4 CVRwatts=0.8 CVRvars=3 class=1 numcust=0 yearly=LoadProfile xfkVA=25
New Load.P5378686-B_1 phases=1 bus=X_P5378686_T_05060_SLD_1.2 kV=0.24 xfkVA=5.583 pf=0.964 !status=variable mode=4 CVRwatts=0.8 CVRvars=3 class=1 numcust=0 yearly=LoadProfile xfkVA=75
New Load.P5378686-B_2 phases=1 bus=X_P5378686_T_05060_SLD_2.2 kV=0.24 xfkVA=5.583 pf=0.964 !status=variable mode=4 CVRwatts=0.8 CVRvars=3 class=1 numcust=0 yearly=LoadProfile xfkVA=75
New Load.P5378686-B_3 phases=1 bus=X_P5378686_T_05060_SLD_3.2 kV=0.24 xfkVA=5.583 pf=0.964 !status=variable mode=4 CVRwatts=0.8 CVRvars=3 class=1 numcust=0 yearly=LoadProfile xfkVA=75
New Load.P5378686-B_4 phases=1 bus=X_P5378686_T_05060_SLD_4.2 kV=0.24 xfkVA=5.583 pf=0.964 !status=variable mode=4 CVRwatts=0.8 CVRvars=3 class=1 numcust=0 yearly=LoadProfile xfkVA=75
New Load.P5378686-B_5 phases=1 bus=X_P5378686_T_05060_SLD_5.2 kV=0.24 xfkVA=5.583 pf=0.964 !status=variable mode=4 CVRwatts=0.8 CVRvars=3 class=1 numcust=0 yearly=LoadProfile xfkVA=75
New Load.P5378686-B_6 phases=1 bus=X_P5378686_T_05060_SLD_6.2 kV=0.24 xfkVA=5.583 pf=0.964 !status=variable mode=4 CVRwatts=0.8 CVRvars=3 class=1 numcust=0 yearly=LoadProfile xfkVA=75
New Load.P5378686-B_7 phases=1 bus=X_P5378686_T_05060_SLD_7.2 kV=0.24 xfkVA=5.583 pf=0.964 !status=variable mode=4 CVRwatts=0.8 CVRvars=3 class=1 numcust=0 yearly=LoadProfile xfkVA=75
New Load.P5378686-B_8 phases=1 bus=X_P5378686_T_05060_SLD_8.2 kV=0.24 xfkVA=5.583 pf=0.964 !status=variable mode=4 CVRwatts=0.8 CVRvars=3 class=1 numcust=0 yearly=LoadProfile xfkVA=75
New Load.1303654E-B_1 phases=1 bus=X_1303654E_T_05060_SLD_1.2 kV=0.24 xfkVA=4.963 pf=0.964 !status=variable mode=4 CVRwatts=0.8 CVRvars=3 class=1 numcust=0 yearly=LoadProfile xfkVA=25
New Load.1303654E-B_2 phases=1 bus=X_1303654E_T_05060_SLD_2.2 kV=0.24 xfkVA=4.963 pf=0.964 !status=variable mode=4 CVRwatts=0.8 CVRvars=3 class=1 numcust=0 yearly=LoadProfile xfkVA=25
New Load.1303654E-B_3 phases=1 bus=X_1303654E_T_05060_SLD_3.2 kV=0.24 xfkVA=4.963 pf=0.964 !status=variable mode=4 CVRwatts=0.8 CVRvars=3 class=1 numcust=0 yearly=LoadProfile xfkVA=25
New Load.4156458E-C_1 phases=1 bus=X_4156458E_T_05060_SLD_1.3 kV=0.24 xfkVA=6.086 pf=0.95 !status=variable mode=4 CVRwatts=0.8 CVRvars=3 class=1 numcust=0 yearly=LoadProfile xfkVA=38
New Load.4156458E-C_2 phases=1 bus=X_4156458E_T_05060_SLD_2.3 kV=0.24 xfkVA=6.086 pf=0.95 !status=variable mode=4 CVRwatts=0.8 CVRvars=3 class=1 numcust=0 yearly=LoadProfile xfkVA=38
New Load.4156458E-C_3 phases=1 bus=X_4156458E_T_05060_SLD_3.3 kV=0.24 xfkVA=6.086 pf=0.95 !status=variable mode=4 CVRwatts=0.8 CVRvars=3 class=1 numcust=0 yearly=LoadProfile xfkVA=38
New Load.4156458E-C_4 phases=1 bus=X_4156458E_T_05060_SLD_4.3 kV=0.24 xfkVA=6.086 pf=0.95 !status=variable mode=4 CVRwatts=0.8 CVRvars=3 class=1 numcust=0 yearly=LoadProfile xfkVA=38
New Load.P5378763-C_1 phases=1 bus=X_P5378763_T_05060_SLD_1.3 kV=0.24 xfkVA=6.492 pf=0.95 !status=variable mode=4 CVRwatts=0.8 CVRvars=3 class=1 numcust=0 yearly=LoadProfile xfkVA=100
New Load.P5378763-C_2 phases=1 bus=X_P5378763_T_05060_SLD_2.3 kV=0.24 xfkVA=6.492 pf=0.95 !status=variable mode=4 CVRwatts=0.8 CVRvars=3 class=1 numcust=0 yearly=LoadProfile xfkVA=100
New Load.P5378763-C_3 phases=1 bus=X_P5378763_T_05060_SLD_3.3 kV=0.24 xfkVA=6.492 pf=0.95 !status=variable mode=4 CVRwatts=0.8 CVRvars=3 class=1 numcust=0 yearly=LoadProfile xfkVA=100
New Load.P5378763-C_4 phases=1 bus=X_P5378763_T_05060_SLD_4.3 kV=0.24 xfkVA=6.492 pf=0.95 !status=variable mode=4 CVRwatts=0.8 CVRvars=3 class=1 numcust=0 yearly=LoadProfile xfkVA=100
New Load.P5378763-C_5 phases=1 bus=X_P5378763_T_05060_SLD_5.3 kV=0.24 xfkVA=6.492 pf=0.95 !status=variable mode=4 CVRwatts=0.8 CVRvars=3 class=1 numcust=0 yearly=LoadProfile xfkVA=100
New Load.P5378763-C_6 phases=1 bus=X_P5378763_T_05060_SLD_6.3 kV=0.24 xfkVA=6.492 pf=0.95 !status=variable mode=4 CVRwatts=0.8 CVRvars=3 class=1 numcust=0 yearly=LoadProfile xfkVA=100
New Load.P5378763-C_7 phases=1 bus=X_P5378763_T_05060_SLD_7.3 kV=0.24 xfkVA=6.492 pf=0.95 !status=variable mode=4 CVRwatts=0.8 CVRvars=3 class=1 numcust=0 yearly=LoadProfile xfkVA=100
New Load.P5378763-C_8 phases=1 bus=X_P5378763_T_05060_SLD_8.3 kV=0.24 xfkVA=6.492 pf=0.95 !status=variable mode=4 CVRwatts=0.8 CVRvars=3 class=1 numcust=0 yearly=LoadProfile xfkVA=100
New Load.P5378763-C_9 phases=1 bus=X_P5378763_T_05060_SLD_9.3 kV=0.24 xfkVA=6.492 pf=0.95 !status=variable mode=4 CVRwatts=0.8 CVRvars=3 class=1 numcust=0 yearly=LoadProfile xfkVA=100
New Load.P5378763-C_10 phases=1 bus=X_P5378763_T_05060_SLD_10.3 kV=0.24 xfkVA=6.492 pf=0.95 !status=variable mode=4 CVRwatts=0.8 CVRvars=3 class=1 numcust=0 yearly=LoadProfile xfkVA=100
New Load.861693E-A_1 phases=1 bus=X_861693E_T_05060_SLD_1.1 kV=0.24 xfkVA=3.827 pf=0.967 !status=variable mode=4 CVRwatts=0.8 CVRvars=3 class=1 numcust=0 yearly=LoadProfile xfkVA=25
New Load.861693E-A_2 phases=1 bus=X_861693E_T_05060_SLD_2.1 kV=0.24 xfkVA=3.827 pf=0.967 !status=variable mode=4 CVRwatts=0.8 CVRvars=3 class=1 numcust=0 yearly=LoadProfile xfkVA=25
New Load.861693E-A_3 phases=1 bus=X_861693E_T_05060_SLD_3.1 kV=0.24 xfkVA=3.827 pf=0.967 !status=variable mode=4 CVRwatts=0.8 CVRvars=3 class=1 numcust=0 yearly=LoadProfile xfkVA=25
New Load.861690E-A_1 phases=1 bus=X_861690E_T_05060_SLD_1.1 kV=0.24 xfkVA=4.592 pf=0.967 !status=variable mode=4 CVRwatts=0.8 CVRvars=3 class=1 numcust=0 yearly=LoadProfile xfkVA=50
New Load.861690E-A_2 phases=1 bus=X_861690E_T_05060_SLD_2.1 kV=0.24 xfkVA=4.592 pf=0.967 !status=variable mode=4 CVRwatts=0.8 CVRvars=3 class=1 numcust=0 yearly=LoadProfile xfkVA=50
New Load.861690E-A_3 phases=1 bus=X_861690E_T_05060_SLD_3.1 kV=0.24 xfkVA=4.592 pf=0.967 !status=variable mode=4 CVRwatts=0.8 CVRvars=3 class=1 numcust=0 yearly=LoadProfile xfkVA=50
New Load.861690E-A_4 phases=1 bus=X_861690E_T_05060_SLD_4.1 kV=0.24 xfkVA=4.592 pf=0.967 !status=variable mode=4 CVRwatts=0.8 CVRvars=3 class=1 numcust=0 yearly=LoadProfile xfkVA=50
New Load.861690E-A_5 phases=1 bus=X_861690E_T_05060_SLD_5.1 kV=0.24 xfkVA=4.592 pf=0.967 !status=variable mode=4 CVRwatts=0.8 CVRvars=3 class=1 numcust=0 yearly=LoadProfile xfkVA=50
New Load.P5378783-B_1 phases=1 bus=X_P5378783_T_05060_SLD_1.2 kV=0.24 xfkVA=5.956 pf=0.964 !status=variable mode=4 CVRwatts=0.8 CVRvars=3 class=1 numcust=0 yearly=LoadProfile xfkVA=50
New Load.P5378783-B_2 phases=1 bus=X_P5378783_T_05060_SLD_2.2 kV=0.24 xfkVA=5.956 pf=0.964 !status=variable mode=4 CVRwatts=0.8 CVRvars=3 class=1 numcust=0 yearly=LoadProfile xfkVA=50
New Load.P5378783-B_3 phases=1 bus=X_P5378783_T_05060_SLD_3.2 kV=0.24 xfkVA=5.956 pf=0.964 !status=variable mode=4 CVRwatts=0.8 CVRvars=3 class=1 numcust=0 yearly=LoadProfile xfkVA=50
New Load.P5378783-B_4 phases=1 bus=X_P5378783_T_05060_SLD_4.2 kV=0.24 xfkVA=5.956 pf=0.964 !status=variable mode=4 CVRwatts=0.8 CVRvars=3 class=1 numcust=0 yearly=LoadProfile xfkVA=50
New Load.P5378783-B_5 phases=1 bus=X_P5378783_T_05060_SLD_5.2 kV=0.24 xfkVA=5.956 pf=0.964 !status=variable mode=4 CVRwatts=0.8 CVRvars=3 class=1 numcust=0 yearly=LoadProfile xfkVA=50
New Load.585493H-ABC_1 phases=3 bus=X_585493H_T_05060_SLD_1.1.2.3 kV=0.48 xfkVA=35.982 pf=0.941 !status=variable mode=4 CVRwatts=0.8 CVRvars=3 class=1 numcust=0 yearly=LoadProfile xfkVA=150
New Load.585493H-ABC_2 phases=3 bus=X_585493H_T_05060_SLD_2.1.2.3 kV=0.48 xfkVA=35.982 pf=0.941 !status=variable mode=4 CVRwatts=0.8 CVRvars=3 class=1 numcust=0 yearly=LoadProfile xfkVA=150
New Load.4591398E-ABC_1 phases=3 bus=X_4591398E_T_05060_SLD_1.1.2.3 kV=0.48 xfkVA=3.598 pf=0.941 !status=variable mode=4 CVRwatts=0.8 CVRvars=3 class=1 numcust=0 yearly=LoadProfile xfkVA=15
New Load.4591398E-ABC_2 phases=3 bus=X_4591398E_T_05060_SLD_2.1.2.3 kV=0.48 xfkVA=3.598 pf=0.941 !status=variable mode=4 CVRwatts=0.8 CVRvars=3 class=1 numcust=0 yearly=LoadProfile xfkVA=15
New Load.132337H-A_1 phases=1 bus=X_132337H_T_05060_SLD_1.1 kV=0.24 xfkVA=3.827 pf=0.967 !status=variable mode=4 CVRwatts=0.8 CVRvars=3 class=1 numcust=0 yearly=LoadProfile xfkVA=25
New Load.132337H-A_2 phases=1 bus=X_132337H_T_05060_SLD_2.1 kV=0.24 xfkVA=3.827 pf=0.967 !status=variable mode=4 CVRwatts=0.8 CVRvars=3 class=1 numcust=0 yearly=LoadProfile xfkVA=25
New Load.132337H-A_3 phases=1 bus=X_132337H_T_05060_SLD_3.1 kV=0.24 xfkVA=3.827 pf=0.967 !status=variable mode=4 CVRwatts=0.8 CVRvars=3 class=1 numcust=0 yearly=LoadProfile xfkVA=25
New Load.P5378650-B_1 phases=1 bus=X_P5378650_T_05060_SLD_1.2 kV=0.24 xfkVA=5.956 pf=0.964 !status=variable mode=4 CVRwatts=0.8 CVRvars=3 class=1 numcust=0 yearly=LoadProfile xfkVA=100
New Load.P5378650-B_2 phases=1 bus=X_P5378650_T_05060_SLD_2.2 kV=0.24 xfkVA=5.956 pf=0.964 !status=variable mode=4 CVRwatts=0.8 CVRvars=3 class=1 numcust=0 yearly=LoadProfile xfkVA=100
New Load.P5378650-B_3 phases=1 bus=X_P5378650_T_05060_SLD_3.2 kV=0.24 xfkVA=5.956 pf=0.964 !status=variable mode=4 CVRwatts=0.8 CVRvars=3 class=1 numcust=0 yearly=LoadProfile xfkVA=100
New Load.P5378650-B_4 phases=1 bus=X_P5378650_T_05060_SLD_4.2 kV=0.24 xfkVA=5.956 pf=0.964 !status=variable mode=4 CVRwatts=0.8 CVRvars=3 class=1 numcust=0 yearly=LoadProfile xfkVA=100
New Load.P5378650-B_5 phases=1 bus=X_P5378650_T_05060_SLD_5.2 kV=0.24 xfkVA=5.956 pf=0.964 !status=variable mode=4 CVRwatts=0.8 CVRvars=3 class=1 numcust=0 yearly=LoadProfile xfkVA=100
New Load.P5378650-B_6 phases=1 bus=X_P5378650_T_05060_SLD_6.2 kV=0.24 xfkVA=5.956 pf=0.964 !status=variable mode=4 CVRwatts=0.8 CVRvars=3 class=1 numcust=0 yearly=LoadProfile xfkVA=100
New Load.P5378650-B_7 phases=1 bus=X_P5378650_T_05060_SLD_7.2 kV=0.24 xfkVA=5.956 pf=0.964 !status=variable mode=4 CVRwatts=0.8 CVRvars=3 class=1 numcust=0 yearly=LoadProfile xfkVA=100
New Load.P5378650-B_8 phases=1 bus=X_P5378650_T_05060_SLD_8.2 kV=0.24 xfkVA=5.956 pf=0.964 !status=variable mode=4 CVRwatts=0.8 CVRvars=3 class=1 numcust=0 yearly=LoadProfile xfkVA=100
New Load.P5378650-B_9 phases=1 bus=X_P5378650_T_05060_SLD_9.2 kV=0.24 xfkVA=5.956 pf=0.964 !status=variable mode=4 CVRwatts=0.8 CVRvars=3 class=1 numcust=0 yearly=LoadProfile xfkVA=100
New Load.P5378650-B_10 phases=1 bus=X_P5378650_T_05060_SLD_10.2 kV=0.24 xfkVA=5.956 pf=0.964 !status=variable mode=4 CVRwatts=0.8 CVRvars=3 class=1 numcust=0 yearly=LoadProfile xfkVA=100
New Load.4332023E-ABC_1 phases=3 bus=X_4332023E_T_05060_SLD_1.1.2.3 kV=0.48 xfkVA=3.998 pf=0.941 !status=variable mode=4 CVRwatts=0.8 CVRvars=3 class=1 numcust=0 yearly=LoadProfile xfkVA=25
New Load.4332023E-ABC_2 phases=3 bus=X_4332023E_T_05060_SLD_2.1.2.3 kV=0.48 xfkVA=3.998 pf=0.941 !status=variable mode=4 CVRwatts=0.8 CVRvars=3 class=1 numcust=0 yearly=LoadProfile xfkVA=25
New Load.4332023E-ABC_3 phases=3 bus=X_4332023E_T_05060_SLD_3.1.2.3 kV=0.48 xfkVA=3.998 pf=0.941 !status=variable mode=4 CVRwatts=0.8 CVRvars=3 class=1 numcust=0 yearly=LoadProfile xfkVA=25
New Load.1173075E-ABC_1 phases=3 bus=X_1173075E_T_05060_SLD_1.1.2.3 kV=0.48 xfkVA=35.982 pf=0.941 !status=variable mode=4 CVRwatts=0.8 CVRvars=3 class=1 numcust=0 yearly=LoadProfile xfkVA=75
New Load.1130137E-A_1 phases=1 bus=X_1130137E_T_05060_SLD_1.1 kV=0.24 xfkVA=3.444 pf=0.967 !status=variable mode=4 CVRwatts=0.8 CVRvars=3 class=1 numcust=0 yearly=LoadProfile xfkVA=15
New Load.1130137E-A_2 phases=1 bus=X_1130137E_T_05060_SLD_2.1 kV=0.24 xfkVA=3.444 pf=0.967 !status=variable mode=4 CVRwatts=0.8 CVRvars=3 class=1 numcust=0 yearly=LoadProfile xfkVA=15
New Load.437741E-C_1 phases=1 bus=X_437741E_T_05060_SLD_1.3 kV=0.24 xfkVA=6.086 pf=0.95 !status=variable mode=4 CVRwatts=0.8 CVRvars=3 class=1 numcust=0 yearly=LoadProfile xfkVA=38
New Load.437741E-C_2 phases=1 bus=X_437741E_T_05060_SLD_2.3 kV=0.24 xfkVA=6.086 pf=0.95 !status=variable mode=4 CVRwatts=0.8 CVRvars=3 class=1 numcust=0 yearly=LoadProfile xfkVA=38
New Load.437741E-C_3 phases=1 bus=X_437741E_T_05060_SLD_3.3 kV=0.24 xfkVA=6.086 pf=0.95 !status=variable mode=4 CVRwatts=0.8 CVRvars=3 class=1 numcust=0 yearly=LoadProfile xfkVA=38
New Load.437741E-C_4 phases=1 bus=X_437741E_T_05060_SLD_4.3 kV=0.24 xfkVA=6.086 pf=0.95 !status=variable mode=4 CVRwatts=0.8 CVRvars=3 class=1 numcust=0 yearly=LoadProfile xfkVA=38
New Load.861689E-A_1 phases=1 bus=X_861689E_T_05060_SLD_1.1 kV=0.24 xfkVA=3.827 pf=0.967 !status=variable mode=4 CVRwatts=0.8 CVRvars=3 class=1 numcust=0 yearly=LoadProfile xfkVA=25
New Load.861689E-A_2 phases=1 bus=X_861689E_T_05060_SLD_2.1 kV=0.24 xfkVA=3.827 pf=0.967 !status=variable mode=4 CVRwatts=0.8 CVRvars=3 class=1 numcust=0 yearly=LoadProfile xfkVA=25
New Load.861689E-A_3 phases=1 bus=X_861689E_T_05060_SLD_3.1 kV=0.24 xfkVA=3.827 pf=0.967 !status=variable mode=4 CVRwatts=0.8 CVRvars=3 class=1 numcust=0 yearly=LoadProfile xfkVA=25
New Load.1041678E-ABC_1 phases=3 bus=X_1041678E_T_05060_SLD_1.1.2.3 kV=0.48 xfkVA=3.598 pf=0.941 !status=variable mode=4 CVRwatts=0.8 CVRvars=3 class=1 numcust=0 yearly=LoadProfile xfkVA=15
New Load.1041678E-ABC_2 phases=3 bus=X_1041678E_T_05060_SLD_2.1.2.3 kV=0.48 xfkVA=3.598 pf=0.941 !status=variable mode=4 CVRwatts=0.8 CVRvars=3 class=1 numcust=0 yearly=LoadProfile xfkVA=15
New Load.1159233E-B_1 phases=1 bus=X_1159233E_T_05060_SLD_1.2 kV=0.24 xfkVA=4.467 pf=0.964 !status=variable mode=4 CVRwatts=0.8 CVRvars=3 class=1 numcust=0 yearly=LoadProfile xfkVA=15
New Load.1159233E-B_2 phases=1 bus=X_1159233E_T_05060_SLD_2.2 kV=0.24 xfkVA=4.467 pf=0.964 !status=variable mode=4 CVRwatts=0.8 CVRvars=3 class=1 numcust=0 yearly=LoadProfile xfkVA=15
New Load.1006079E-A_1 phases=1 bus=X_1006079E_T_05060_SLD_1.1 kV=0.24 xfkVA=3.827 pf=0.967 !status=variable mode=4 CVRwatts=0.8 CVRvars=3 class=1 numcust=0 yearly=LoadProfile xfkVA=25
New Load.1006079E-A_2 phases=1 bus=X_1006079E_T_05060_SLD_2.1 kV=0.24 xfkVA=3.827 pf=0.967 !status=variable mode=4 CVRwatts=0.8 CVRvars=3 class=1 numcust=0 yearly=LoadProfile xfkVA=25
New Load.1006079E-A_3 phases=1 bus=X_1006079E_T_05060_SLD_3.1 kV=0.24 xfkVA=3.827 pf=0.967 !status=variable mode=4 CVRwatts=0.8 CVRvars=3 class=1 numcust=0 yearly=LoadProfile xfkVA=25
New Load.500424E-ABC_1 phases=3 bus=X_500424E_T_05060_SLD_1.1.2.3 kV=0.48 xfkVA=3.998 pf=0.941 !status=variable mode=4 CVRwatts=0.8 CVRvars=3 class=1 numcust=0 yearly=LoadProfile xfkVA=25
New Load.500424E-ABC_2 phases=3 bus=X_500424E_T_05060_SLD_2.1.2.3 kV=0.48 xfkVA=3.998 pf=0.941 !status=variable mode=4 CVRwatts=0.8 CVRvars=3 class=1 numcust=0 yearly=LoadProfile xfkVA=25
New Load.500424E-ABC_3 phases=3 bus=X_500424E_T_05060_SLD_3.1.2.3 kV=0.48 xfkVA=3.998 pf=0.941 !status=variable mode=4 CVRwatts=0.8 CVRvars=3 class=1 numcust=0 yearly=LoadProfile xfkVA=25
New Load.1324616E-A_1 phases=1 bus=X_1324616E_T_05060_SLD_1.1 kV=0.24 xfkVA=3.827 pf=0.967 !status=variable mode=4 CVRwatts=0.8 CVRvars=3 class=1 numcust=0 yearly=LoadProfile xfkVA=25
New Load.1324616E-A_2 phases=1 bus=X_1324616E_T_05060_SLD_2.1 kV=0.24 xfkVA=3.827 pf=0.967 !status=variable mode=4 CVRwatts=0.8 CVRvars=3 class=1 numcust=0 yearly=LoadProfile xfkVA=25
New Load.1324616E-A_3 phases=1 bus=X_1324616E_T_05060_SLD_3.1 kV=0.24 xfkVA=3.827 pf=0.967 !status=variable mode=4 CVRwatts=0.8 CVRvars=3 class=1 numcust=0 yearly=LoadProfile xfkVA=25
New Load.216253E-C_1 phases=1 bus=X_216253E_T_05060_SLD_1.3 kV=0.24 xfkVA=6.086 pf=0.95 !status=variable mode=4 CVRwatts=0.8 CVRvars=3 class=1 numcust=0 yearly=LoadProfile xfkVA=75
New Load.216253E-C_2 phases=1 bus=X_216253E_T_05060_SLD_2.3 kV=0.24 xfkVA=6.086 pf=0.95 !status=variable mode=4 CVRwatts=0.8 CVRvars=3 class=1 numcust=0 yearly=LoadProfile xfkVA=75
New Load.216253E-C_3 phases=1 bus=X_216253E_T_05060_SLD_3.3 kV=0.24 xfkVA=6.086 pf=0.95 !status=variable mode=4 CVRwatts=0.8 CVRvars=3 class=1 numcust=0 yearly=LoadProfile xfkVA=75
New Load.216253E-C_4 phases=1 bus=X_216253E_T_05060_SLD_4.3 kV=0.24 xfkVA=6.086 pf=0.95 !status=variable mode=4 CVRwatts=0.8 CVRvars=3 class=1 numcust=0 yearly=LoadProfile xfkVA=75
New Load.216253E-C_5 phases=1 bus=X_216253E_T_05060_SLD_5.3 kV=0.24 xfkVA=6.086 pf=0.95 !status=variable mode=4 CVRwatts=0.8 CVRvars=3 class=1 numcust=0 yearly=LoadProfile xfkVA=75
New Load.216253E-C_6 phases=1 bus=X_216253E_T_05060_SLD_6.3 kV=0.24 xfkVA=6.086 pf=0.95 !status=variable mode=4 CVRwatts=0.8 CVRvars=3 class=1 numcust=0 yearly=LoadProfile xfkVA=75
New Load.216253E-C_7 phases=1 bus=X_216253E_T_05060_SLD_7.3 kV=0.24 xfkVA=6.086 pf=0.95 !status=variable mode=4 CVRwatts=0.8 CVRvars=3 class=1 numcust=0 yearly=LoadProfile xfkVA=75
New Load.216253E-C_8 phases=1 bus=X_216253E_T_05060_SLD_8.3 kV=0.24 xfkVA=6.086 pf=0.95 !status=variable mode=4 CVRwatts=0.8 CVRvars=3 class=1 numcust=0 yearly=LoadProfile xfkVA=75
New Load.523427E-ABC_1 phases=3 bus=X_523427E_T_05060_SLD_1.1.2.3 kV=0.48 xfkVA=4.798 pf=0.941 !status=variable mode=4 CVRwatts=0.8 CVRvars=3 class=1 numcust=0 yearly=LoadProfile xfkVA=50
New Load.523427E-ABC_2 phases=3 bus=X_523427E_T_05060_SLD_2.1.2.3 kV=0.48 xfkVA=4.798 pf=0.941 !status=variable mode=4 CVRwatts=0.8 CVRvars=3 class=1 numcust=0 yearly=LoadProfile xfkVA=50
New Load.523427E-ABC_3 phases=3 bus=X_523427E_T_05060_SLD_3.1.2.3 kV=0.48 xfkVA=4.798 pf=0.941 !status=variable mode=4 CVRwatts=0.8 CVRvars=3 class=1 numcust=0 yearly=LoadProfile xfkVA=50
New Load.523427E-ABC_4 phases=3 bus=X_523427E_T_05060_SLD_4.1.2.3 kV=0.48 xfkVA=4.798 pf=0.941 !status=variable mode=4 CVRwatts=0.8 CVRvars=3 class=1 numcust=0 yearly=LoadProfile xfkVA=50
New Load.523427E-ABC_5 phases=3 bus=X_523427E_T_05060_SLD_5.1.2.3 kV=0.48 xfkVA=4.798 pf=0.941 !status=variable mode=4 CVRwatts=0.8 CVRvars=3 class=1 numcust=0 yearly=LoadProfile xfkVA=50
New Load.P5448478-C_1 phases=1 bus=X_P5448478_T_05060_SLD_1.3 kV=0.24 xfkVA=6.492 pf=0.95 !status=variable mode=4 CVRwatts=0.8 CVRvars=3 class=1 numcust=0 yearly=LoadProfile xfkVA=50
New Load.P5448478-C_2 phases=1 bus=X_P5448478_T_05060_SLD_2.3 kV=0.24 xfkVA=6.492 pf=0.95 !status=variable mode=4 CVRwatts=0.8 CVRvars=3 class=1 numcust=0 yearly=LoadProfile xfkVA=50
New Load.P5448478-C_3 phases=1 bus=X_P5448478_T_05060_SLD_3.3 kV=0.24 xfkVA=6.492 pf=0.95 !status=variable mode=4 CVRwatts=0.8 CVRvars=3 class=1 numcust=0 yearly=LoadProfile xfkVA=50
New Load.P5448478-C_4 phases=1 bus=X_P5448478_T_05060_SLD_4.3 kV=0.24 xfkVA=6.492 pf=0.95 !status=variable mode=4 CVRwatts=0.8 CVRvars=3 class=1 numcust=0 yearly=LoadProfile xfkVA=50
New Load.P5448478-C_5 phases=1 bus=X_P5448478_T_05060_SLD_5.3 kV=0.24 xfkVA=6.492 pf=0.95 !status=variable mode=4 CVRwatts=0.8 CVRvars=3 class=1 numcust=0 yearly=LoadProfile xfkVA=50
New Load.1041722E-A_1 phases=1 bus=X_1041722E_T_05060_SLD_1.1 kV=0.24 xfkVA=4.305 pf=0.967 !status=variable mode=4 CVRwatts=0.8 CVRvars=3 class=1 numcust=0 yearly=LoadProfile xfkVA=38
New Load.1041722E-A_2 phases=1 bus=X_1041722E_T_05060_SLD_2.1 kV=0.24 xfkVA=4.305 pf=0.967 !status=variable mode=4 CVRwatts=0.8 CVRvars=3 class=1 numcust=0 yearly=LoadProfile xfkVA=38
New Load.1041722E-A_3 phases=1 bus=X_1041722E_T_05060_SLD_3.1 kV=0.24 xfkVA=4.305 pf=0.967 !status=variable mode=4 CVRwatts=0.8 CVRvars=3 class=1 numcust=0 yearly=LoadProfile xfkVA=38
New Load.1041722E-A_4 phases=1 bus=X_1041722E_T_05060_SLD_4.1 kV=0.24 xfkVA=4.305 pf=0.967 !status=variable mode=4 CVRwatts=0.8 CVRvars=3 class=1 numcust=0 yearly=LoadProfile xfkVA=38
New Load.1429047E-B_1 phases=1 bus=X_1429047E_T_05060_SLD_1.2 kV=0.24 xfkVA=4.467 pf=0.964 !status=variable mode=4 CVRwatts=0.8 CVRvars=3 class=1 numcust=0 yearly=LoadProfile xfkVA=8
New Load.P5436258-B_1 phases=1 bus=X_P5436258_T_05060_SLD_1.2 kV=0.24 xfkVA=5.956 pf=0.964 !status=variable mode=4 CVRwatts=0.8 CVRvars=3 class=1 numcust=0 yearly=LoadProfile xfkVA=50
New Load.P5436258-B_2 phases=1 bus=X_P5436258_T_05060_SLD_2.2 kV=0.24 xfkVA=5.956 pf=0.964 !status=variable mode=4 CVRwatts=0.8 CVRvars=3 class=1 numcust=0 yearly=LoadProfile xfkVA=50
New Load.P5436258-B_3 phases=1 bus=X_P5436258_T_05060_SLD_3.2 kV=0.24 xfkVA=5.956 pf=0.964 !status=variable mode=4 CVRwatts=0.8 CVRvars=3 class=1 numcust=0 yearly=LoadProfile xfkVA=50
New Load.P5436258-B_4 phases=1 bus=X_P5436258_T_05060_SLD_4.2 kV=0.24 xfkVA=5.956 pf=0.964 !status=variable mode=4 CVRwatts=0.8 CVRvars=3 class=1 numcust=0 yearly=LoadProfile xfkVA=50
New Load.P5436258-B_5 phases=1 bus=X_P5436258_T_05060_SLD_5.2 kV=0.24 xfkVA=5.956 pf=0.964 !status=variable mode=4 CVRwatts=0.8 CVRvars=3 class=1 numcust=0 yearly=LoadProfile xfkVA=50
New Load.1041703E-A_1 phases=1 bus=X_1041703E_T_05060_SLD_1.1 kV=0.24 xfkVA=4.592 pf=0.967 !status=variable mode=4 CVRwatts=0.8 CVRvars=3 class=1 numcust=0 yearly=LoadProfile xfkVA=100
New Load.1041703E-A_2 phases=1 bus=X_1041703E_T_05060_SLD_2.1 kV=0.24 xfkVA=4.592 pf=0.967 !status=variable mode=4 CVRwatts=0.8 CVRvars=3 class=1 numcust=0 yearly=LoadProfile xfkVA=100
New Load.1041703E-A_3 phases=1 bus=X_1041703E_T_05060_SLD_3.1 kV=0.24 xfkVA=4.592 pf=0.967 !status=variable mode=4 CVRwatts=0.8 CVRvars=3 class=1 numcust=0 yearly=LoadProfile xfkVA=100
New Load.1041703E-A_4 phases=1 bus=X_1041703E_T_05060_SLD_4.1 kV=0.24 xfkVA=4.592 pf=0.967 !status=variable mode=4 CVRwatts=0.8 CVRvars=3 class=1 numcust=0 yearly=LoadProfile xfkVA=100
New Load.1041703E-A_5 phases=1 bus=X_1041703E_T_05060_SLD_5.1 kV=0.24 xfkVA=4.592 pf=0.967 !status=variable mode=4 CVRwatts=0.8 CVRvars=3 class=1 numcust=0 yearly=LoadProfile xfkVA=100
New Load.1041703E-A_6 phases=1 bus=X_1041703E_T_05060_SLD_6.1 kV=0.24 xfkVA=4.592 pf=0.967 !status=variable mode=4 CVRwatts=0.8 CVRvars=3 class=1 numcust=0 yearly=LoadProfile xfkVA=100
New Load.1041703E-A_7 phases=1 bus=X_1041703E_T_05060_SLD_7.1 kV=0.24 xfkVA=4.592 pf=0.967 !status=variable mode=4 CVRwatts=0.8 CVRvars=3 class=1 numcust=0 yearly=LoadProfile xfkVA=100
New Load.1041703E-A_8 phases=1 bus=X_1041703E_T_05060_SLD_8.1 kV=0.24 xfkVA=4.592 pf=0.967 !status=variable mode=4 CVRwatts=0.8 CVRvars=3 class=1 numcust=0 yearly=LoadProfile xfkVA=100
New Load.1041703E-A_9 phases=1 bus=X_1041703E_T_05060_SLD_9.1 kV=0.24 xfkVA=4.592 pf=0.967 !status=variable mode=4 CVRwatts=0.8 CVRvars=3 class=1 numcust=0 yearly=LoadProfile xfkVA=100
New Load.1041703E-A_10 phases=1 bus=X_1041703E_T_05060_SLD_10.1 kV=0.24 xfkVA=4.592 pf=0.967 !status=variable mode=4 CVRwatts=0.8 CVRvars=3 class=1 numcust=0 yearly=LoadProfile xfkVA=100
New Load.861626E-A_1 phases=1 bus=X_861626E_T_05060_SLD_1.1 kV=0.24 xfkVA=3.827 pf=0.967 !status=variable mode=4 CVRwatts=0.8 CVRvars=3 class=1 numcust=0 yearly=LoadProfile xfkVA=25
New Load.861626E-A_2 phases=1 bus=X_861626E_T_05060_SLD_2.1 kV=0.24 xfkVA=3.827 pf=0.967 !status=variable mode=4 CVRwatts=0.8 CVRvars=3 class=1 numcust=0 yearly=LoadProfile xfkVA=25
New Load.861626E-A_3 phases=1 bus=X_861626E_T_05060_SLD_3.1 kV=0.24 xfkVA=3.827 pf=0.967 !status=variable mode=4 CVRwatts=0.8 CVRvars=3 class=1 numcust=0 yearly=LoadProfile xfkVA=25
New Load.884804E-A_1 phases=1 bus=X_884804E_T_05060_SLD_1.1 kV=0.24 xfkVA=4.592 pf=0.967 !status=variable mode=4 CVRwatts=0.8 CVRvars=3 class=1 numcust=0 yearly=LoadProfile xfkVA=10
New Load.861698E-A_1 phases=1 bus=X_861698E_T_05060_SLD_1.1 kV=0.24 xfkVA=3.827 pf=0.967 !status=variable mode=4 CVRwatts=0.8 CVRvars=3 class=1 numcust=0 yearly=LoadProfile xfkVA=25
New Load.861698E-A_2 phases=1 bus=X_861698E_T_05060_SLD_2.1 kV=0.24 xfkVA=3.827 pf=0.967 !status=variable mode=4 CVRwatts=0.8 CVRvars=3 class=1 numcust=0 yearly=LoadProfile xfkVA=25
New Load.861698E-A_3 phases=1 bus=X_861698E_T_05060_SLD_3.1 kV=0.24 xfkVA=3.827 pf=0.967 !status=variable mode=4 CVRwatts=0.8 CVRvars=3 class=1 numcust=0 yearly=LoadProfile xfkVA=25
New Load.1159234E-B_1 phases=1 bus=X_1159234E_T_05060_SLD_1.2 kV=0.24 xfkVA=4.963 pf=0.964 !status=variable mode=4 CVRwatts=0.8 CVRvars=3 class=1 numcust=0 yearly=LoadProfile xfkVA=25
New Load.1159234E-B_2 phases=1 bus=X_1159234E_T_05060_SLD_2.2 kV=0.24 xfkVA=4.963 pf=0.964 !status=variable mode=4 CVRwatts=0.8 CVRvars=3 class=1 numcust=0 yearly=LoadProfile xfkVA=25
New Load.1159234E-B_3 phases=1 bus=X_1159234E_T_05060_SLD_3.2 kV=0.24 xfkVA=4.963 pf=0.964 !status=variable mode=4 CVRwatts=0.8 CVRvars=3 class=1 numcust=0 yearly=LoadProfile xfkVA=25
New Load.4403051E-A_1 phases=1 bus=X_4403051E_T_05060_SLD_1.1 kV=0.24 xfkVA=3.827 pf=0.967 !status=variable mode=4 CVRwatts=0.8 CVRvars=3 class=1 numcust=0 yearly=LoadProfile xfkVA=25
New Load.4403051E-A_2 phases=1 bus=X_4403051E_T_05060_SLD_2.1 kV=0.24 xfkVA=3.827 pf=0.967 !status=variable mode=4 CVRwatts=0.8 CVRvars=3 class=1 numcust=0 yearly=LoadProfile xfkVA=25