New Load.motor_load_p1rlv4347_2 conn=wye bus1=p1rlv4347.2 kV=0.12 kW=1.0831220679988958 kvar=0.21662441359977916 Phases=1 Vminpu=0.0 Vmaxpu=1.2 model=1
New Load.motor_load_p1rlv4348_2 conn=wye bus1=p1rlv4348.2 kV=0.12 kW=1.1897651355166512 kvar=0.23795302710333024 Phases=1 Vminpu=0.0 Vmaxpu=1.2 model=1
New Load.motor_load_p1rlv4349_1 conn=wye bus1=p1rlv4349.1 kV=0.12 kW=1.0741892904441053 kvar=0.21483785808882105 Phases=1 Vminpu=0.0 Vmaxpu=1.2 model=1
New Load.motor_load_p1rlv4350_1 conn=wye bus1=p1rlv4350.1 kV=0.12 kW=1.1700917063587524 kvar=0.23401834127175047 Phases=1 Vminpu=0.0 Vmaxpu=1.2 model=1
New Load.motor_load_p1rlv4350_2 conn=wye bus1=p1rlv4350.2 kV=0.12 kW=1.1693112233972798 kvar=0.23386224467945596 Phases=1 Vminpu=0.0 Vmaxpu=1.2 model=1
New Load.motor_load_p1rlv4351_1 conn=wye bus1=p1rlv4351.1 kV=0.12 kW=1.1641663807120444 kvar=0.2328332761424089 Phases=1 Vminpu=0.0 Vmaxpu=1.2 model=1
New Load.motor_load_p1rlv4351_2 conn=wye bus1=p1rlv4351.2 kV=0.12 kW=1.2043354832598434 kvar=0.2408670966519687 Phases=1 Vminpu=0.0 Vmaxpu=1.2 model=1
New Load.motor_load_p1rlv4353_1 conn=wye bus1=p1rlv4353.1 kV=0.12 kW=1.2076288094133938 kvar=0.24152576188267877 Phases=1 Vminpu=0.0 Vmaxpu=1.2 model=1
New Load.motor_load_p1rlv4354_2 conn=wye bus1=p1rlv4354.2 kV=0.12 kW=1.1621488538812348 kvar=0.23242977077624696 Phases=1 Vminpu=0.0 Vmaxpu=1.2 model=1
New Load.motor_load_p1rlv4355_1 conn=wye bus1=p1rlv4355.1 kV=0.12 kW=1.081065809203365 kvar=0.216213161840673 Phases=1 Vminpu=0.0 Vmaxpu=1.2 model=1
New Load.motor_load_p1rlv4356_2 conn=wye bus1=p1rlv4356.2 kV=0.12 kW=1.0601166498537626 kvar=0.21202332997075254 Phases=1 Vminpu=0.0 Vmaxpu=1.2 model=1
New Load.motor_load_p1rlv4357_1 conn=wye bus1=p1rlv4357.1 kV=0.12 kW=1.2343305307779566 kvar=0.24686610615559135 Phases=1 Vminpu=0.0 Vmaxpu=1.2 model=1
New Load.motor_load_p1rlv4618_1 conn=wye bus1=p1rlv4618.1 kV=0.12 kW=1.1293618377407175 kvar=0.22587236754814352 Phases=1 Vminpu=0.0 Vmaxpu=1.2 model=1
New Load.motor_load_p1rlv4619_1 conn=wye bus1=p1rlv4619.1 kV=0.12 kW=1.1957679285353038 kvar=0.23915358570706077 Phases=1 Vminpu=0.0 Vmaxpu=1.2 model=1
New Load.motor_load_p1rlv4620_1 conn=wye bus1=p1rlv4620.1 kV=0.12 kW=1.1136108634316946 kvar=0.22272217268633893 Phases=1 Vminpu=0.0 Vmaxpu=1.2 model=1
New Load.motor_load_p1rlv4620_2 conn=wye bus1=p1rlv4620.2 kV=0.12 kW=1.1088329693023478 kvar=0.22176659386046957 Phases=1 Vminpu=0.0 Vmaxpu=1.2 model=1
New Load.motor_load_p1rlv4626_1 conn=wye bus1=p1rlv4626.1 kV=0.12 kW=1.1353888941106682 kvar=0.22707777882213365 Phases=1 Vminpu=0.0 Vmaxpu=1.2 model=1
New Load.motor_load_p1rlv4626_2 conn=wye bus1=p1rlv4626.2 kV=0.12 kW=1.090794946768706 kvar=0.2181589893537412 Phases=1 Vminpu=0.0 Vmaxpu=1.2 model=1
New Load.motor_load_p1rlv4627_1 conn=wye bus1=p1rlv4627.1 kV=0.12 kW=1.1535343691737634 kvar=0.2307068738347527 Phases=1 Vminpu=0.0 Vmaxpu=1.2 model=1
New Load.motor_load_p1rlv4627_2 conn=wye bus1=p1rlv4627.2 kV=0.12 kW=1.1595436586726018 kvar=0.23190873173452037 Phases=1 Vminpu=0.0 Vmaxpu=1.2 model=1
New Load.motor_load_p1rlv4630_1 conn=wye bus1=p1rlv4630.1 kV=0.12 kW=1.133025102801441 kvar=0.22660502056028822 Phases=1 Vminpu=0.0 Vmaxpu=1.2 model=1
New Load.motor_load_p1rlv4637_2 conn=wye bus1=p1rlv4637.2 kV=0.12 kW=1.0882139732879093 kvar=0.21764279465758185 Phases=1 Vminpu=0.0 Vmaxpu=1.2 model=1
New Load.motor_load_p1rlv4640_2 conn=wye bus1=p1rlv4640.2 kV=0.12 kW=1.2253478899320813 kvar=0.24506957798641626 Phases=1 Vminpu=0.0 Vmaxpu=1.2 model=1
New Load.motor_load_p1rlv4642_1 conn=wye bus1=p1rlv4642.1 kV=0.12 kW=1.1146238425355046 kvar=0.22292476850710094 Phases=1 Vminpu=0.0 Vmaxpu=1.2 model=1
New Load.motor_load_p1rlv4645_2 conn=wye bus1=p1rlv4645.2 kV=0.12 kW=1.0888105079082748 kvar=0.217762101581655 Phases=1 Vminpu=0.0 Vmaxpu=1.2 model=1
New Load.motor_load_p1rlv4649_2 conn=wye bus1=p1rlv4649.2 kV=0.12 kW=1.1708837493232722 kvar=0.23417674986465445 Phases=1 Vminpu=0.0 Vmaxpu=1.2 model=1
New Load.motor_load_p1rlv4652_2 conn=wye bus1=p1rlv4652.2 kV=0.12 kW=1.2194211453883042 kvar=0.24388422907766083 Phases=1 Vminpu=0.0 Vmaxpu=1.2 model=1
New Load.motor_load_p1rlv4653_2 conn=wye bus1=p1rlv4653.2 kV=0.12 kW=1.2007431188644095 kvar=0.24014862377288193 Phases=1 Vminpu=0.0 Vmaxpu=1.2 model=1
New Load.motor_load_p1rlv4654_2 conn=wye bus1=p1rlv4654.2 kV=0.12 kW=1.1259760043999525 kvar=0.2251952008799905 Phases=1 Vminpu=0.0 Vmaxpu=1.2 model=1
New Load.motor_load_p1rlv4656_2 conn=wye bus1=p1rlv4656.2 kV=0.12 kW=1.2216222862154313 kvar=0.24432445724308627 Phases=1 Vminpu=0.0 Vmaxpu=1.2 model=1
New Load.motor_load_p1rlv4657_1 conn=wye bus1=p1rlv4657.1 kV=0.12 kW=1.259683935287977 kvar=0.2519367870575954 Phases=1 Vminpu=0.0 Vmaxpu=1.2 model=1
New Load.motor_load_p1rlv4658_1 conn=wye bus1=p1rlv4658.1 kV=0.12 kW=1.2322887106143825 kvar=0.24645774212287652 Phases=1 Vminpu=0.0 Vmaxpu=1.2 model=1
New Load.motor_load_p1rlv4659_2 conn=wye bus1=p1rlv4659.2 kV=0.12 kW=1.2305023120374936 kvar=0.24610046240749872 Phases=1 Vminpu=0.0 Vmaxpu=1.2 model=1
New Load.motor_load_p1rlv4662_2 conn=wye bus1=p1rlv4662.2 kV=0.12 kW=1.104892464039078 kvar=0.22097849280781562 Phases=1 Vminpu=0.0 Vmaxpu=1.2 model=1
New Load.motor_load_p1rlv4664_2 conn=wye bus1=p1rlv4664.2 kV=0.12 kW=1.1930232643156473 kvar=0.23860465286312948 Phases=1 Vminpu=0.0 Vmaxpu=1.2 model=1
New Load.motor_load_p1rlv4666_1 conn=wye bus1=p1rlv4666.1 kV=0.12 kW=1.1209432102982766 kvar=0.22418864205965533 Phases=1 Vminpu=0.0 Vmaxpu=1.2 model=1
New Load.motor_load_p1rlv4666_2 conn=wye bus1=p1rlv4666.2 kV=0.12 kW=1.1891508883469597 kvar=0.23783017766939196 Phases=1 Vminpu=0.0 Vmaxpu=1.2 model=1
New Load.motor_load_p1rlv4667_1 conn=wye bus1=p1rlv4667.1 kV=0.12 kW=1.165133448646943 kvar=0.2330266897293886 Phases=1 Vminpu=0.0 Vmaxpu=1.2 model=1
New Load.motor_load_p1rlv4668_2 conn=wye bus1=p1rlv4668.2 kV=0.12 kW=1.234385212589154 kvar=0.2468770425178308 Phases=1 Vminpu=0.0 Vmaxpu=1.2 model=1
New Load.motor_load_p1rlv4669_1 conn=wye bus1=p1rlv4669.1 kV=0.12 kW=1.0669697846975132 kvar=0.21339395693950267 Phases=1 Vminpu=0.0 Vmaxpu=1.2 model=1
New Load.motor_load_p1rlv4670_1 conn=wye bus1=p1rlv4670.1 kV=0.12 kW=1.1639422550963805 kvar=0.23278845101927612 Phases=1 Vminpu=0.0 Vmaxpu=1.2 model=1
New Load.motor_load_p1rlv4672_2 conn=wye bus1=p1rlv4672.2 kV=0.12 kW=1.2551085215411577 kvar=0.25102170430823156 Phases=1 Vminpu=0.0 Vmaxpu=1.2 model=1
New Load.motor_load_p1rlv4674_1 conn=wye bus1=p1rlv4674.1 kV=0.12 kW=1.1016527361684456 kvar=0.22033054723368914 Phases=1 Vminpu=0.0 Vmaxpu=1.2 model=1
New Load.motor_load_p1rlv4678_1 conn=wye bus1=p1rlv4678.1 kV=0.12 kW=1.2283734838034206 kvar=0.24567469676068412 Phases=1 Vminpu=0.0 Vmaxpu=1.2 model=1
New Load.motor_load_p1rlv4680_1 conn=wye bus1=p1rlv4680.1 kV=0.12 kW=1.17309276383953 kvar=0.23461855276790602 Phases=1 Vminpu=0.0 Vmaxpu=1.2 model=1
New Load.motor_load_p1rlv4680_2 conn=wye bus1=p1rlv4680.2 kV=0.12 kW=1.2076413549507956 kvar=0.24152827099015914 Phases=1 Vminpu=0.0 Vmaxpu=1.2 model=1
New Load.motor_load_p1rlv4681_2 conn=wye bus1=p1rlv4681.2 kV=0.12 kW=1.186275426039155 kvar=0.237255085207831 Phases=1 Vminpu=0.0 Vmaxpu=1.2 model=1
New Load.motor_load_p1rlv4682_1 conn=wye bus1=p1rlv4682.1 kV=0.12 kW=1.2619758007256099 kvar=0.252395160145122 Phases=1 Vminpu=0.0 Vmaxpu=1.2 model=1
New Load.motor_load_p1rlv4686_1 conn=wye bus1=p1rlv4686.1 kV=0.12 kW=1.064035891640727 kvar=0.21280717832814544 Phases=1 Vminpu=0.0 Vmaxpu=1.2 model=1
New Load.motor_load_p1rlv4687_2 conn=wye bus1=p1rlv4687.2 kV=0.12 kW=1.0954722156027488 kvar=0.21909444312054976 Phases=1 Vminpu=0.0 Vmaxpu=1.2 model=1
New Load.motor_load_p1rlv4816_1 conn=wye bus1=p1rlv4816.1 kV=0.12 kW=1.169417225931864 kvar=0.23388344518637283 Phases=1 Vminpu=0.0 Vmaxpu=1.2 model=1
New Load.motor_load_p1rlv4817_1 conn=wye bus1=p1rlv4817.1 kV=0.12 kW=1.0992834416789685 kvar=0.21985668833579372 Phases=1 Vminpu=0.0 Vmaxpu=1.2 model=1
New Load.motor_load_p1rlv4819_1 conn=wye bus1=p1rlv4819.1 kV=0.12 kW=1.2563293483088498 kvar=0.25126586966176995 Phases=1 Vminpu=0.0 Vmaxpu=1.2 model=1
New Load.motor_load_p1rlv4819_2 conn=wye bus1=p1rlv4819.2 kV=0.12 kW=1.2398429473314638 kvar=0.24796858946629277 Phases=1 Vminpu=0.0 Vmaxpu=1.2 model=1
New Load.motor_load_p1rlv4824_1 conn=wye bus1=p1rlv4824.1 kV=0.12 kW=1.1785301264865093 kvar=0.2357060252973019 Phases=1 Vminpu=0.0 Vmaxpu=1.2 model=1
New Load.motor_load_p1rlv4824_2 conn=wye bus1=p1rlv4824.2 kV=0.12 kW=1.185195324848136 kvar=0.2370390649696272 Phases=1 Vminpu=0.0 Vmaxpu=1.2 model=1
New Load.motor_load_p1rlv4826_2 conn=wye bus1=p1rlv4826.2 kV=0.12 kW=1.2464553980086945 kvar=0.2492910796017389 Phases=1 Vminpu=0.0 Vmaxpu=1.2 model=1
New Load.motor_load_p1rlv4828_2 conn=wye bus1=p1rlv4828.2 kV=0.12 kW=1.1043569634448922 kvar=0.22087139268897846 Phases=1 Vminpu=0.0 Vmaxpu=1.2 model=1
New Load.motor_load_p1rlv5995_1 conn=wye bus1=p1rlv5995.1 kV=0.12 kW=1.1261199621828735 kvar=0.2252239924365747 Phases=1 Vminpu=0.0 Vmaxpu=1.2 model=1
New Load.motor_load_p1rlv5996_1 conn=wye bus1=p1rlv5996.1 kV=0.12 kW=1.168257469126657 kvar=0.2336514938253314 Phases=1 Vminpu=0.0 Vmaxpu=1.2 model=1
New Load.motor_load_p1rlv5996_2 conn=wye bus1=p1rlv5996.2 kV=0.12 kW=1.0934582664278345 kvar=0.21869165328556692 Phases=1 Vminpu=0.0 Vmaxpu=1.2 model=1
New Load.motor_load_p1rlv5997_2 conn=wye bus1=p1rlv5997.2 kV=0.12 kW=1.060684153487153 kvar=0.2121368306974306 Phases=1 Vminpu=0.0 Vmaxpu=1.2 model=1
New Load.motor_load_p1rlv5999_2 conn=wye bus1=p1rlv5999.2 kV=0.12 kW=1.2614052360313373 kvar=0.2522810472062675 Phases=1 Vminpu=0.0 Vmaxpu=1.2 model=1
New Load.motor_load_p1rlv6000_1 conn=wye bus1=p1rlv6000.1 kV=0.12 kW=1.1872828161284832 kvar=0.23745656322569664 Phases=1 Vminpu=0.0 Vmaxpu=1.2 model=1
New Load.motor_load_p1rlv6002_1 conn=wye bus1=p1rlv6002.1 kV=0.12 kW=1.1762020137330575 kvar=0.2352404027466115 Phases=1 Vminpu=0.0 Vmaxpu=1.2 model=1
New Load.motor_load_p1rlv6003_2 conn=wye bus1=p1rlv6003.2 kV=0.12 kW=1.1961729616820918 kvar=0.23923459233641836 Phases=1 Vminpu=0.0 Vmaxpu=1.2 model=1
New Load.motor_load_p1rlv6004_2 conn=wye bus1=p1rlv6004.2 kV=0.12 kW=1.0859406329533454 kvar=0.2171881265906691 Phases=1 Vminpu=0.0 Vmaxpu=1.2 model=1
New Load.motor_load_p1rlv6005_1 conn=wye bus1=p1rlv6005.1 kV=0.12 kW=1.1182162211179905 kvar=0.2236432442235981 Phases=1 Vminpu=0.0 Vmaxpu=1.2 model=1
New Load.motor_load_p1rlv6005_2 conn=wye bus1=p1rlv6005.2 kV=0.12 kW=1.100020978518391 kvar=0.2200041957036782 Phases=1 Vminpu=0.0 Vmaxpu=1.2 model=1
New Load.motor_load_p1rlv6007_1 conn=wye bus1=p1rlv6007.1 kV=0.12 kW=1.1029898141299757 kvar=0.22059796282599514 Phases=1 Vminpu=0.0 Vmaxpu=1.2 model=1
New Load.motor_load_p1rlv6008_1 conn=wye bus1=p1rlv6008.1 kV=0.12 kW=1.2386578198683647 kvar=0.24773156397367294 Phases=1 Vminpu=0.0 Vmaxpu=1.2 model=1
New Load.motor_load_p1rlv6009_2 conn=wye bus1=p1rlv6009.2 kV=0.12 kW=1.1007045067141723 kvar=0.22014090134283448 Phases=1 Vminpu=0.0 Vmaxpu=1.2 model=1
New Load.motor_load_p1rlv6010_1 conn=wye bus1=p1rlv6010.1 kV=0.12 kW=1.250264416291178 kvar=0.2500528832582356 Phases=1 Vminpu=0.0 Vmaxpu=1.2 model=1
New Load.motor_load_p1rlv6267_1 conn=wye bus1=p1rlv6267.1 kV=0.12 kW=1.2595492116020592 kvar=0.25190984232041186 Phases=1 Vminpu=0.0 Vmaxpu=1.2 model=1
New Load.motor_load_p1rlv6267_2 conn=wye bus1=p1rlv6267.2 kV=0.12 kW=1.1082910987515449 kvar=0.22165821975030897 Phases=1 Vminpu=0.0 Vmaxpu=1.2 model=1
New Load.motor_load_p1rlv6268_1 conn=wye bus1=p1rlv6268.1 kV=0.12 kW=1.2042478919141089 kvar=0.24084957838282178 Phases=1 Vminpu=0.0 Vmaxpu=1.2 model=1
New Load.motor_load_p1rlv6268_2 conn=wye bus1=p1rlv6268.2 kV=0.12 kW=1.1772712764156161 kvar=0.23545425528312325 Phases=1 Vminpu=0.0 Vmaxpu=1.2 model=1
New Load.motor_load_p1rlv6269_2 conn=wye bus1=p1rlv6269.2 kV=0.12 kW=1.13245707960676 kvar=0.226491415921352 Phases=1 Vminpu=0.0 Vmaxpu=1.2 model=1
New Load.motor_load_p1rlv6271_1 conn=wye bus1=p1rlv6271.1 kV=0.12 kW=1.1345805341609971 kvar=0.22691610683219943 Phases=1 Vminpu=0.0 Vmaxpu=1.2 model=1
New Load.motor_load_p1rlv6272_1 conn=wye bus1=p1rlv6272.1 kV=0.12 kW=1.1941416975645462 kvar=0.23882833951290927 Phases=1 Vminpu=0.0 Vmaxpu=1.2 model=1
New Load.motor_load_p1rlv6273_2 conn=wye bus1=p1rlv6273.2 kV=0.12 kW=1.1044620577793607 kvar=0.22089241155587214 Phases=1 Vminpu=0.0 Vmaxpu=1.2 model=1
New Load.motor_load_p1rlv6274_1 conn=wye bus1=p1rlv6274.1 kV=0.12 kW=1.1438967135202367 kvar=0.22877934270404734 Phases=1 Vminpu=0.0 Vmaxpu=1.2 model=1
New Load.motor_load_p1rlv6275_1 conn=wye bus1=p1rlv6275.1 kV=0.12 kW=1.2083002250504278 kvar=0.24166004501008556 Phases=1 Vminpu=0.0 Vmaxpu=1.2 model=1
New Load.motor_load_p1rlv6275_2 conn=wye bus1=p1rlv6275.2 kV=0.12 kW=1.1469137842721175 kvar=0.22938275685442353 Phases=1 Vminpu=0.0 Vmaxpu=1.2 model=1
New Load.motor_load_p1rlv6277_1 conn=wye bus1=p1rlv6277.1 kV=0.12 kW=1.0586357013416796 kvar=0.21172714026833594 Phases=1 Vminpu=0.0 Vmaxpu=1.2 model=1
New Load.motor_load_p1rlv6278_2 conn=wye bus1=p1rlv6278.2 kV=0.12 kW=1.1344974892866764 kvar=0.2268994978573353 Phases=1 Vminpu=0.0 Vmaxpu=1.2 model=1
New Load.motor_load_p1rlv6286_1 conn=wye bus1=p1rlv6286.1 kV=0.12 kW=1.1654867095486667 kvar=0.23309734190973336 Phases=1 Vminpu=0.0 Vmaxpu=1.2 model=1
New Load.motor_load_p1rlv6287_1 conn=wye bus1=p1rlv6287.1 kV=0.12 kW=1.1125396495924038 kvar=0.22250792991848078 Phases=1 Vminpu=0.0 Vmaxpu=1.2 model=1
New Load.motor_load_p1rlv6289_1 conn=wye bus1=p1rlv6289.1 kV=0.12 kW=1.2123302896802315 kvar=0.2424660579360463 Phases=1 Vminpu=0.0 Vmaxpu=1.2 model=1
New Load.motor_load_p1rlv6290_2 conn=wye bus1=p1rlv6290.2 kV=0.12 kW=1.1809708838525759 kvar=0.23619417677051519 Phases=1 Vminpu=0.0 Vmaxpu=1.2 model=1
New Load.motor_load_p1rlv6292_2 conn=wye bus1=p1rlv6292.2 kV=0.12 kW=1.2071955209348104 kvar=0.2414391041869621 Phases=1 Vminpu=0.0 Vmaxpu=1.2 model=1
New Load.motor_load_p1rlv6293_1 conn=wye bus1=p1rlv6293.1 kV=0.12 kW=1.2160471532402506 kvar=0.24320943064805012 Phases=1 Vminpu=0.0 Vmaxpu=1.2 model=1
New Load.motor_load_p1rlv6293_2 conn=wye bus1=p1rlv6293.2 kV=0.12 kW=1.2225713530254063 kvar=0.24451427060508127 Phases=1 Vminpu=0.0 Vmaxpu=1.2 model=1
New Load.motor_load_p1rlv6296_1 conn=wye bus1=p1rlv6296.1 kV=0.12 kW=1.0976296984203575 kvar=0.21952593968407152 Phases=1 Vminpu=0.0 Vmaxpu=1.2 model=1
New Load.motor_load_p1rlv6296_2 conn=wye bus1=p1rlv6296.2 kV=0.12 kW=1.0527214943359846 kvar=0.21054429886719694 Phases=1 Vminpu=0.0 Vmaxpu=1.2 model=1
New Load.motor_load_p1rlv6300_2 conn=wye bus1=p1rlv6300.2 kV=0.12 kW=1.064048650424715 kvar=0.21280973008494303 Phases=1 Vminpu=0.0 Vmaxpu=1.2 model=1
New Load.motor_load_p1rlv6301_1 conn=wye bus1=p1rlv6301.1 kV=0.12 kW=1.1239301191919313 kvar=0.22478602383838628 Phases=1 Vminpu=0.0 Vmaxpu=1.2 model=1
New Load.motor_load_p1rlv6302_1 conn=wye bus1=p1rlv6302.1 kV=0.12 kW=1.1325000054005954 kvar=0.22650000108011908 Phases=1 Vminpu=0.0 Vmaxpu=1.2 model=1
New Load.motor_load_p1rlv6303_2 conn=wye bus1=p1rlv6303.2 kV=0.12 kW=1.1409697556325267 kvar=0.22819395112650534 Phases=1 Vminpu=0.0 Vmaxpu=1.2 model=1
New Load.motor_load_p1rlv6306_2 conn=wye bus1=p1rlv6306.2 kV=0.12 kW=1.0854035068645034 kvar=0.2170807013729007 Phases=1 Vminpu=0.0 Vmaxpu=1.2 model=1
New Load.motor_load_p1rlv6308_2 conn=wye bus1=p1rlv6308.2 kV=0.12 kW=1.1307588050489343 kvar=0.22615176100978687 Phases=1 Vminpu=0.0 Vmaxpu=1.2 model=1
New Load.motor_load_p1rlv6313_1 conn=wye bus1=p1rlv6313.1 kV=0.12 kW=1.061617732414994 kvar=0.2123235464829988 Phases=1 Vminpu=0.0 Vmaxpu=1.2 model=1
New Load.motor_load_p1rlv6317_1 conn=wye bus1=p1rlv6317.1 kV=0.12 kW=1.1238396730935423 kvar=0.22476793461870848 Phases=1 Vminpu=0.0 Vmaxpu=1.2 model=1
New Load.motor_load_p1rlv6319_1 conn=wye bus1=p1rlv6319.1 kV=0.12 kW=1.1009871195420151 kvar=0.22019742390840302 Phases=1 Vminpu=0.0 Vmaxpu=1.2 model=1
New Load.motor_load_p1rlv6321_1 conn=wye bus1=p1rlv6321.1 kV=0.12 kW=1.1767566858145682 kvar=0.23535133716291365 Phases=1 Vminpu=0.0 Vmaxpu=1.2 model=1
New Load.motor_load_p1rlv6325_1 conn=wye bus1=p1rlv6325.1 kV=0.12 kW=1.254775967086453 kvar=0.2509551934172906 Phases=1 Vminpu=0.0 Vmaxpu=1.2 model=1
New Load.motor_load_p1rlv6325_2 conn=wye bus1=p1rlv6325.2 kV=0.12 kW=1.260476655502138 kvar=0.25209533110042764 Phases=1 Vminpu=0.0 Vmaxpu=1.2 model=1
New Load.motor_load_p1rlv6326_1 conn=wye bus1=p1rlv6326.1 kV=0.12 kW=1.0715226004008285 kvar=0.2143045200801657 Phases=1 Vminpu=0.0 Vmaxpu=1.2 model=1
New Load.motor_load_p1rlv6327_2 conn=wye bus1=p1rlv6327.2 kV=0.12 kW=1.075514560810433 kvar=0.21510291216208663 Phases=1 Vminpu=0.0 Vmaxpu=1.2 model=1
New Load.motor_load_p1rlv6328_1 conn=wye bus1=p1rlv6328.1 kV=0.12 kW=1.2443359476755367 kvar=0.24886718953510734 Phases=1 Vminpu=0.0 Vmaxpu=1.2 model=1
New Load.motor_load_p1rlv6330_2 conn=wye bus1=p1rlv6330.2 kV=0.12 kW=1.0777590218705384 kvar=0.2155518043741077 Phases=1 Vminpu=0.0 Vmaxpu=1.2 model=1
New Load.motor_load_p1rlv6331_1 conn=wye bus1=p1rlv6331.1 kV=0.12 kW=1.2332978549886864 kvar=0.24665957099773728 Phases=1 Vminpu=0.0 Vmaxpu=1.2 model=1
New Load.motor_load_p1rlv6331_2 conn=wye bus1=p1rlv6331.2 kV=0.12 kW=1.2593064007013526 kvar=0.25186128014027054 Phases=1 Vminpu=0.0 Vmaxpu=1.2 model=1
New Load.motor_load_p1rlv6335_1 conn=wye bus1=p1rlv6335.1 kV=0.12 kW=1.1079170612157916 kvar=0.22158341224315833 Phases=1 Vminpu=0.0 Vmaxpu=1.2 model=1
New Load.motor_load_p1rlv6338_2 conn=wye bus1=p1rlv6338.2 kV=0.12 kW=1.2523988238832813 kvar=0.2504797647766563 Phases=1 Vminpu=0.0 Vmaxpu=1.2 model=1
New Load.motor_load_p1rlv6342_1 conn=wye bus1=p1rlv6342.1 kV=0.12 kW=1.0744105449590462 kvar=0.21488210899180926 Phases=1 Vminpu=0.0 Vmaxpu=1.2 model=1
New Load.motor_load_p1rlv6346_1 conn=wye bus1=p1rlv6346.1 kV=0.12 kW=1.2438321929229723 kvar=0.24876643858459446 Phases=1 Vminpu=0.0 Vmaxpu=1.2 model=1
New Load.motor_load_p1rlv6347_1 conn=wye bus1=p1rlv6347.1 kV=0.12 kW=1.0738613129351608 kvar=0.2147722625870322 Phases=1 Vminpu=0.0 Vmaxpu=1.2 model=1
New Load.motor_load_p1rlv6347_2 conn=wye bus1=p1rlv6347.2 kV=0.12 kW=1.1872114104388762 kvar=0.23744228208777526 Phases=1 Vminpu=0.0 Vmaxpu=1.2 model=1
New Load.motor_load_p1rlv6348_1 conn=wye bus1=p1rlv6348.1 kV=0.12 kW=1.1966067100224251 kvar=0.23932134200448504 Phases=1 Vminpu=0.0 Vmaxpu=1.2 model=1
New Load.motor_load_p1rlv6349_2 conn=wye bus1=p1rlv6349.2 kV=0.12 kW=1.063407776232394 kvar=0.2126815552464788 Phases=1 Vminpu=0.0 Vmaxpu=1.2 model=1
New Load.motor_load_p1rlv6350_1 conn=wye bus1=p1rlv6350.1 kV=0.12 kW=1.1703013108190712 kvar=0.23406026216381426 Phases=1 Vminpu=0.0 Vmaxpu=1.2 model=1
New Load.motor_load_p1rlv6350_2 conn=wye bus1=p1rlv6350.2 kV=0.12 kW=1.1234081808073666 kvar=0.22468163616147332 Phases=1 Vminpu=0.0 Vmaxpu=1.2 model=1
New Load.motor_load_p1rlv6352_1 conn=wye bus1=p1rlv6352.1 kV=0.12 kW=1.2128237424042108 kvar=0.24256474848084217 Phases=1 Vminpu=0.0 Vmaxpu=1.2 model=1
New Load.motor_load_p1rlv6354_2 conn=wye bus1=p1rlv6354.2 kV=0.12 kW=1.0571068455519874 kvar=0.2114213691103975 Phases=1 Vminpu=0.0 Vmaxpu=1.2 model=1
New Load.motor_load_p1rlv6356_1 conn=wye bus1=p1rlv6356.1 kV=0.12 kW=1.0655534729021439 kvar=0.21311069458042878 Phases=1 Vminpu=0.0 Vmaxpu=1.2 model=1
New Load.motor_load_p1rlv6357_1 conn=wye bus1=p1rlv6357.1 kV=0.12 kW=1.1561202013959193 kvar=0.23122404027918386 Phases=1 Vminpu=0.0 Vmaxpu=1.2 model=1
New Load.motor_load_p1rlv6359_1 conn=wye bus1=p1rlv6359.1 kV=0.12 kW=1.1200456623308992 kvar=0.22400913246617984 Phases=1 Vminpu=0.0 Vmaxpu=1.2 model=1
New Load.motor_load_p1rlv6360_2 conn=wye bus1=p1rlv6360.2 kV=0.12 kW=1.1175162287327858 kvar=0.22350324574655717 Phases=1 Vminpu=0.0 Vmaxpu=1.2 model=1
New Load.motor_load_p1rlv6361_1 conn=wye bus1=p1rlv6361.1 kV=0.12 kW=1.0616994018553636 kvar=0.21233988037107274 Phases=1 Vminpu=0.0 Vmaxpu=1.2 model=1
New Load.motor_load_p1rlv6364_1 conn=wye bus1=p1rlv6364.1 kV=0.12 kW=1.232309533803097 kvar=0.2464619067606194 Phases=1 Vminpu=0.0 Vmaxpu=1.2 model=1
New Load.motor_load_p1rlv6365_2 conn=wye bus1=p1rlv6365.2 kV=0.12 kW=1.11794274558144 kvar=0.223588549116288 Phases=1 Vminpu=0.0 Vmaxpu=1.2 model=1
New Load.motor_load_p1rlv6366_1 conn=wye bus1=p1rlv6366.1 kV=0.12 kW=1.245592924683955 kvar=0.249118584936791 Phases=1 Vminpu=0.0 Vmaxpu=1.2 model=1
New Load.motor_load_p1rlv6715_1 conn=wye bus1=p1rlv6715.1 kV=0.12 kW=1.06308895811491 kvar=0.21261779162298203 Phases=1 Vminpu=0.0 Vmaxpu=1.2 model=1
New Load.motor_load_p1rlv6715_2 conn=wye bus1=p1rlv6715.2 kV=0.12 kW=1.2040477452876865 kvar=0.24080954905753732 Phases=1 Vminpu=0.0 Vmaxpu=1.2 model=1
New Load.motor_load_p1rlv6716_1 conn=wye bus1=p1rlv6716.1 kV=0.12 kW=1.2031173021440622 kvar=0.24062346042881244 Phases=1 Vminpu=0.0 Vmaxpu=1.2 model=1
New Load.motor_load_p1rlv6718_2 conn=wye bus1=p1rlv6718.2 kV=0.12 kW=1.1233418351542177 kvar=0.22466836703084356 Phases=1 Vminpu=0.0 Vmaxpu=1.2 model=1
New Load.motor_load_p1rlv6719_1 conn=wye bus1=p1rlv6719.1 kV=0.12 kW=1.254736867068766 kvar=0.2509473734137532 Phases=1 Vminpu=0.0 Vmaxpu=1.2 model=1
New Load.motor_load_p1rlv6719_2 conn=wye bus1=p1rlv6719.2 kV=0.12 kW=1.198506762110028 kvar=0.23970135242200563 Phases=1 Vminpu=0.0 Vmaxpu=1.2 model=1
New Load.motor_load_p1rlv6720_2 conn=wye bus1=p1rlv6720.2 kV=0.12 kW=1.2549291425978288 kvar=0.2509858285195658 Phases=1 Vminpu=0.0 Vmaxpu=1.2 model=1
New Load.motor_load_p1rlv6722_1 conn=wye bus1=p1rlv6722.1 kV=0.12 kW=1.1998246153522483 kvar=0.23996492307044967 Phases=1 Vminpu=0.0 Vmaxpu=1.2 model=1
New Load.motor_load_p1rlv6723_1 conn=wye bus1=p1rlv6723.1 kV=0.12 kW=1.1928980261489297 kvar=0.23857960522978594 Phases=1 Vminpu=0.0 Vmaxpu=1.2 model=1
New Load.motor_load_p1rlv6725_2 conn=wye bus1=p1rlv6725.2 kV=0.12 kW=1.1852351472852944 kvar=0.2370470294570589 Phases=1 Vminpu=0.0 Vmaxpu=1.2 model=1
New Load.motor_load_p1rlv6727_2 conn=wye bus1=p1rlv6727.2 kV=0.12 kW=1.0684064540197542 kvar=0.21368129080395085 Phases=1 Vminpu=0.0 Vmaxpu=1.2 model=1
New Load.motor_load_p1rlv6728_1 conn=wye bus1=p1rlv6728.1 kV=0.12 kW=1.2483736689648002 kvar=0.24967473379296004 Phases=1 Vminpu=0.0 Vmaxpu=1.2 model=1
New Load.motor_load_p1rlv6732_2 conn=wye bus1=p1rlv6732.2 kV=0.12 kW=1.0798361746882248 kvar=0.21596723493764497 Phases=1 Vminpu=0.0 Vmaxpu=1.2 model=1
New Load.motor_load_p1rlv6733_1 conn=wye bus1=p1rlv6733.1 kV=0.12 kW=1.2341027548701846 kvar=0.24682055097403693 Phases=1 Vminpu=0.0 Vmaxpu=1.2 model=1
New Load.motor_load_p1rlv6734_1 conn=wye bus1=p1rlv6734.1 kV=0.12 kW=1.1286065117844293 kvar=0.22572130235688587 Phases=1 Vminpu=0.0 Vmaxpu=1.2 model=1
New Load.motor_load_p1rlv6735_2 conn=wye bus1=p1rlv6735.2 kV=0.12 kW=1.1369571272757963 kvar=0.22739142545515928 Phases=1 Vminpu=0.0 Vmaxpu=1.2 model=1
New Load.motor_load_p1rlv6736_1 conn=wye bus1=p1rlv6736.1 kV=0.12 kW=1.157385968792958 kvar=0.2314771937585916 Phases=1 Vminpu=0.0 Vmaxpu=1.2 model=1
New Load.motor_load_p1rlv6737_2 conn=wye bus1=p1rlv6737.2 kV=0.12 kW=1.1080862475009536 kvar=0.22161724950019074 Phases=1 Vminpu=0.0 Vmaxpu=1.2 model=1
New Load.motor_load_p1rlv6738_1 conn=wye bus1=p1rlv6738.1 kV=0.12 kW=1.2021097858156415 kvar=0.2404219571631283 Phases=1 Vminpu=0.0 Vmaxpu=1.2 model=1
New Load.motor_load_p1rlv6739_1 conn=wye bus1=p1rlv6739.1 kV=0.12 kW=1.1158760146501847 kvar=0.22317520293003695 Phases=1 Vminpu=0.0 Vmaxpu=1.2 model=1
New Load.motor_load_p1rlv6741_2 conn=wye bus1=p1rlv6741.2 kV=0.12 kW=1.1566705223762916 kvar=0.23133410447525835 Phases=1 Vminpu=0.0 Vmaxpu=1.2 model=1
New Load.motor_load_p1rlv6748_1 conn=wye bus1=p1rlv6748.1 kV=0.12 kW=1.1201487406895565 kvar=0.22402974813791132 Phases=1 Vminpu=0.0 Vmaxpu=1.2 model=1
New Load.motor_load_p1rlv6748_2 conn=wye bus1=p1rlv6748.2 kV=0.12 kW=1.1837526510290766 kvar=0.23675053020581532 Phases=1 Vminpu=0.0 Vmaxpu=1.2 model=1
New Load.motor_load_p1rlv6750_1 conn=wye bus1=p1rlv6750.1 kV=0.12 kW=1.1747969221813699 kvar=0.23495938443627398 Phases=1 Vminpu=0.0 Vmaxpu=1.2 model=1
New Load.motor_load_p1rlv6751_1 conn=wye bus1=p1rlv6751.1 kV=0.12 kW=1.252067924027815 kvar=0.250413584805563 Phases=1 Vminpu=0.0 Vmaxpu=1.2 model=1
New Load.motor_load_p1rlv6751_2 conn=wye bus1=p1rlv6751.2 kV=0.12 kW=1.0640829309520514 kvar=0.2128165861904103 Phases=1 Vminpu=0.0 Vmaxpu=1.2 model=1
New Load.motor_load_p1rlv6753_1 conn=wye bus1=p1rlv6753.1 kV=0.12 kW=1.1316653803612626 kvar=0.22633307607225253 Phases=1 Vminpu=0.0 Vmaxpu=1.2 model=1
New Load.motor_load_p1rlv6754_1 conn=wye bus1=p1rlv6754.1 kV=0.12 kW=1.068725066987534 kvar=0.2137450133975068 Phases=1 Vminpu=0.0 Vmaxpu=1.2 model=1
New Load.motor_load_p1rlv6754_2 conn=wye bus1=p1rlv6754.2 kV=0.12 kW=1.2282116110004773 kvar=0.24564232220009546 Phases=1 Vminpu=0.0 Vmaxpu=1.2 model=1
New Load.motor_load_p1rlv6755_2 conn=wye bus1=p1rlv6755.2 kV=0.12 kW=1.2551062616279767 kvar=0.25102125232559536 Phases=1 Vminpu=0.0 Vmaxpu=1.2 model=1
New Load.motor_load_p1rlv6756_1 conn=wye bus1=p1rlv6756.1 kV=0.12 kW=1.182081092220234 kvar=0.2364162184440468 Phases=1 Vminpu=0.0 Vmaxpu=1.2 model=1
New Load.motor_load_p1rlv6757_1 conn=wye bus1=p1rlv6757.1 kV=0.12 kW=1.2001049398599726 kvar=0.24002098797199453 Phases=1 Vminpu=0.0 Vmaxpu=1.2 model=1
New Load.motor_load_p1rlv6758_1 conn=wye bus1=p1rlv6758.1 kV=0.12 kW=1.2160888329533397 kvar=0.24321776659066796 Phases=1 Vminpu=0.0 Vmaxpu=1.2 model=1
New Load.motor_load_p1rlv6759_2 conn=wye bus1=p1rlv6759.2 kV=0.12 kW=1.211261447172589 kvar=0.24225228943451782 Phases=1 Vminpu=0.0 Vmaxpu=1.2 model=1
New Load.motor_load_p1rlv6761_1 conn=wye bus1=p1rlv6761.1 kV=0.12 kW=1.1777717668660883 kvar=0.23555435337321767 Phases=1 Vminpu=0.0 Vmaxpu=1.2 model=1
New Load.motor_load_p1rlv6762_2 conn=wye bus1=p1rlv6762.2 kV=0.12 kW=1.249447803597377 kvar=0.24988956071947543 Phases=1 Vminpu=0.0 Vmaxpu=1.2 model=1
New Load.motor_load_p1rlv6764_1 conn=wye bus1=p1rlv6764.1 kV=0.12 kW=1.2620070761096418 kvar=0.2524014152219284 Phases=1 Vminpu=0.0 Vmaxpu=1.2 model=1
New Load.motor_load_p1rlv6765_2 conn=wye bus1=p1rlv6765.2 kV=0.12 kW=1.1941064842451015 kvar=0.23882129684902031 Phases=1 Vminpu=0.0 Vmaxpu=1.2 model=1
New Load.motor_load_p1rlv6767_1 conn=wye bus1=p1rlv6767.1 kV=0.12 kW=1.2449911429056104 kvar=0.24899822858112208 Phases=1 Vminpu=0.0 Vmaxpu=1.2 model=1
New Load.motor_load_p1rlv6771_1 conn=wye bus1=p1rlv6771.1 kV=0.12 kW=1.117839287383146 kvar=0.22356785747662922 Phases=1 Vminpu=0.0 Vmaxpu=1.2 model=1
New Load.motor_load_p1rlv6771_2 conn=wye bus1=p1rlv6771.2 kV=0.12 kW=1.1833817066493384 kvar=0.2366763413298677 Phases=1 Vminpu=0.0 Vmaxpu=1.2 model=1
New Load.motor_load_p1rlv6772_1 conn=wye bus1=p1rlv6772.1 kV=0.12 kW=1.2561334721945117 kvar=0.25122669443890233 Phases=1 Vminpu=0.0 Vmaxpu=1.2 model=1
New Load.motor_load_p1rlv6772_2 conn=wye bus1=p1rlv6772.2 kV=0.12 kW=1.1675221917872738 kvar=0.23350443835745477 Phases=1 Vminpu=0.0 Vmaxpu=1.2 model=1
New Load.motor_load_p1rlv6780_1 conn=wye bus1=p1rlv6780.1 kV=0.12 kW=1.1740746152813661 kvar=0.23481492305627324 Phases=1 Vminpu=0.0 Vmaxpu=1.2 model=1
New Load.motor_load_p1rlv6783_1 conn=wye bus1=p1rlv6783.1 kV=0.12 kW=1.1937006398218886 kvar=0.2387401279643777 Phases=1 Vminpu=0.0 Vmaxpu=1.2 model=1
New Load.motor_load_p1rlv6785_1 conn=wye bus1=p1rlv6785.1 kV=0.12 kW=1.1882376381348436 kvar=0.23764752762696872 Phases=1 Vminpu=0.0 Vmaxpu=1.2 model=1
New Load.motor_load_p1rlv6787_1 conn=wye bus1=p1rlv6787.1 kV=0.12 kW=1.242214409921345 kvar=0.248442881984269 Phases=1 Vminpu=0.0 Vmaxpu=1.2 model=1
New Load.motor_load_p1rlv6789_1 conn=wye bus1=p1rlv6789.1 kV=0.12 kW=1.2117967319414373 kvar=0.2423593463882875 Phases=1 Vminpu=0.0 Vmaxpu=1.2 model=1
New Load.motor_load_p1rlv6789_2 conn=wye bus1=p1rlv6789.2 kV=0.12 kW=1.0817174190019405 kvar=0.21634348380038812 Phases=1 Vminpu=0.0 Vmaxpu=1.2 model=1
New Load.motor_load_p1rlv6790_2 conn=wye bus1=p1rlv6790.2 kV=0.12 kW=1.2246824107874499 kvar=0.24493648215748998 Phases=1 Vminpu=0.0 Vmaxpu=1.2 model=1
New Load.motor_load_p1rlv6797_1 conn=wye bus1=p1rlv6797.1 kV=0.12 kW=1.2214402642309792 kvar=0.24428805284619584 Phases=1 Vminpu=0.0 Vmaxpu=1.2 model=1
New Load.motor_load_p1rlv6798_1 conn=wye bus1=p1rlv6798.1 kV=0.12 kW=1.0964959056218004 kvar=0.2192991811243601 Phases=1 Vminpu=0.0 Vmaxpu=1.2 model=1
New Load.motor_load_p1rlv6801_1 conn=wye bus1=p1rlv6801.1 kV=0.12 kW=1.129791093059693 kvar=0.22595821861193863 Phases=1 Vminpu=0.0 Vmaxpu=1.2 model=1
New Load.motor_load_p1rlv6801_2 conn=wye bus1=p1rlv6801.2 kV=0.12 kW=1.1764466235367932 kvar=0.23528932470735864 Phases=1 Vminpu=0.0 Vmaxpu=1.2 model=1
New Load.motor_load_p1rlv6802_2 conn=wye bus1=p1rlv6802.2 kV=0.12 kW=1.111169040817645 kvar=0.222233808163529 Phases=1 Vminpu=0.0 Vmaxpu=1.2 model=1
New Load.motor_load_p1rlv6803_1 conn=wye bus1=p1rlv6803.1 kV=0.12 kW=1.0986017199964964 kvar=0.2197203439992993 Phases=1 Vminpu=0.0 Vmaxpu=1.2 model=1
New Load.motor_load_p1rlv6807_1 conn=wye bus1=p1rlv6807.1 kV=0.12 kW=1.169872174997948 kvar=0.2339744349995896 Phases=1 Vminpu=0.0 Vmaxpu=1.2 model=1
New Load.motor_load_p1rlv6808_1 conn=wye bus1=p1rlv6808.1 kV=0.12 kW=1.0551369923917593 kvar=0.21102739847835186 Phases=1 Vminpu=0.0 Vmaxpu=1.2 model=1
New Load.motor_load_p1rlv6809_1 conn=wye bus1=p1rlv6809.1 kV=0.12 kW=1.097049257013146 kvar=0.21940985140262922 Phases=1 Vminpu=0.0 Vmaxpu=1.2 model=1
New Load.motor_load_p1rlv6811_1 conn=wye bus1=p1rlv6811.1 kV=0.12 kW=1.1533299657743403 kvar=0.23066599315486808 Phases=1 Vminpu=0.0 Vmaxpu=1.2 model=1
New Load.motor_load_p1rlv6811_2 conn=wye bus1=p1rlv6811.2 kV=0.12 kW=1.2180870336229412 kvar=0.24361740672458826 Phases=1 Vminpu=0.0 Vmaxpu=1.2 model=1
New Load.motor_load_p1rlv6812_2 conn=wye bus1=p1rlv6812.2 kV=0.12 kW=1.1104738227351127 kvar=0.22209476454702257 Phases=1 Vminpu=0.0 Vmaxpu=1.2 model=1
New Load.motor_load_p1rlv6813_1 conn=wye bus1=p1rlv6813.1 kV=0.12 kW=1.1607776817059823 kvar=0.23215553634119646 Phases=1 Vminpu=0.0 Vmaxpu=1.2 model=1
New Load.motor_load_p1rlv6815_1 conn=wye bus1=p1rlv6815.1 kV=0.12 kW=1.0834373354360642 kvar=0.21668746708721287 Phases=1 Vminpu=0.0 Vmaxpu=1.2 model=1
New Load.motor_load_p1rlv6816_2 conn=wye bus1=p1rlv6816.2 kV=0.12 kW=1.1084864811734536 kvar=0.22169729623469073 Phases=1 Vminpu=0.0 Vmaxpu=1.2 model=1