New Generator.pv_load_p1rlv4347_1 conn=wye bus1=p1rlv4347.1 kV=0.12 model=7 kW=0.07063582778971297 kvar=-0.0 Phases=1
New Generator.pv_load_p1rlv4347_2 conn=wye bus1=p1rlv4347.2 kV=0.12 model=7 kW=0.07063582778971297 kvar=-0.0 Phases=1
New Generator.pv_load_p1rlv4348_1 conn=wye bus1=p1rlv4348.1 kV=0.12 model=7 kW=0.4764155555115878 kvar=-0.0 Phases=1
New Generator.pv_load_p1rlv4350_1 conn=wye bus1=p1rlv4350.1 kV=0.12 model=7 kW=0.21190673193215645 kvar=-0.0 Phases=1
New Generator.pv_load_p1rlv4352_1 conn=wye bus1=p1rlv4352.1 kV=0.12 model=7 kW=0.2705203194392382 kvar=-0.0 Phases=1
New Generator.pv_load_p1rlv4354_2 conn=wye bus1=p1rlv4354.2 kV=0.12 model=7 kW=0.18786074849292905 kvar=-0.0 Phases=1
New Generator.pv_load_p1rlv4356_1 conn=wye bus1=p1rlv4356.1 kV=0.12 model=7 kW=0.16080901712379822 kvar=-0.0 Phases=1
New Generator.pv_load_p1rlv4615_2 conn=wye bus1=p1rlv4615.2 kV=0.12 model=7 kW=0.4448552022476019 kvar=-0.0 Phases=1
New Generator.pv_load_p1rlv4618_2 conn=wye bus1=p1rlv4618.2 kV=0.12 model=7 kW=0.22994272238554195 kvar=-0.0 Phases=1
New Generator.pv_load_p1rlv4620_2 conn=wye bus1=p1rlv4620.2 kV=0.12 model=7 kW=0.3546812614765341 kvar=-0.0 Phases=1
New Generator.pv_load_p1rlv4621_1 conn=wye bus1=p1rlv4621.1 kV=0.12 model=7 kW=0.24948008392991425 kvar=-0.0 Phases=1
New Generator.pv_load_p1rlv4627_1 conn=wye bus1=p1rlv4627.1 kV=0.12 model=7 kW=0.1818492526331222 kvar=-0.0 Phases=1
New Generator.pv_load_p1rlv4628_1 conn=wye bus1=p1rlv4628.1 kV=0.12 model=7 kW=0.25248583185981766 kvar=-0.0 Phases=1
New Generator.pv_load_p1rlv4628_2 conn=wye bus1=p1rlv4628.2 kV=0.12 model=7 kW=0.25248583185981766 kvar=-0.0 Phases=1
New Generator.pv_load_p1rlv4630_1 conn=wye bus1=p1rlv4630.1 kV=0.12 model=7 kW=0.2058952360723496 kvar=-0.0 Phases=1
New Generator.pv_load_p1rlv4633_2 conn=wye bus1=p1rlv4633.2 kV=0.12 model=7 kW=0.25248583185981766 kvar=-0.0 Phases=1
New Generator.pv_load_p1rlv4634_1 conn=wye bus1=p1rlv4634.1 kV=0.12 model=7 kW=0.2600002016845762 kvar=-0.0 Phases=1
New Generator.pv_load_p1rlv4634_2 conn=wye bus1=p1rlv4634.2 kV=0.12 model=7 kW=0.2600002016845762 kvar=-0.0 Phases=1
New Generator.pv_load_p1rlv4636_1 conn=wye bus1=p1rlv4636.1 kV=0.12 model=7 kW=0.2043923621073979 kvar=-0.0 Phases=1
New Generator.pv_load_p1rlv4637_2 conn=wye bus1=p1rlv4637.2 kV=0.12 model=7 kW=0.44335232828265014 kvar=-0.0 Phases=1
New Generator.pv_load_p1rlv4641_2 conn=wye bus1=p1rlv4641.2 kV=0.12 model=7 kW=0.1563003952289431 kvar=-0.0 Phases=1
New Generator.pv_load_p1rlv4645_2 conn=wye bus1=p1rlv4645.2 kV=0.12 model=7 kW=0.36670425319614786 kvar=-0.0 Phases=1
New Generator.pv_load_p1rlv4647_1 conn=wye bus1=p1rlv4647.1 kV=0.12 model=7 kW=0.4012718572640022 kvar=-0.0 Phases=1
New Generator.pv_load_p1rlv4650_2 conn=wye bus1=p1rlv4650.2 kV=0.12 model=7 kW=0.2164153538270116 kvar=-0.0 Phases=1
New Generator.pv_load_p1rlv4652_1 conn=wye bus1=p1rlv4652.1 kV=0.12 model=7 kW=0.28855480701865877 kvar=-0.0 Phases=1
New Generator.pv_load_p1rlv4659_1 conn=wye bus1=p1rlv4659.1 kV=0.12 model=7 kW=0.29456630287846564 kvar=-0.0 Phases=1
New Generator.pv_load_p1rlv4660_2 conn=wye bus1=p1rlv4660.2 kV=0.12 model=7 kW=0.4463580762125536 kvar=-0.0 Phases=1
New Generator.pv_load_p1rlv4665_1 conn=wye bus1=p1rlv4665.1 kV=0.12 model=7 kW=0.2900576809836105 kvar=-0.0 Phases=1
New Generator.pv_load_p1rlv4667_2 conn=wye bus1=p1rlv4667.2 kV=0.12 model=7 kW=0.3727157490559547 kvar=-0.0 Phases=1
New Generator.pv_load_p1rlv4668_1 conn=wye bus1=p1rlv4668.1 kV=0.12 model=7 kW=0.3832373696845817 kvar=-0.0 Phases=1
New Generator.pv_load_p1rlv4668_2 conn=wye bus1=p1rlv4668.2 kV=0.12 model=7 kW=0.3832373696845817 kvar=-0.0 Phases=1
New Generator.pv_load_p1rlv4670_1 conn=wye bus1=p1rlv4670.1 kV=0.12 model=7 kW=0.23895996617525225 kvar=-0.0 Phases=1
New Generator.pv_load_p1rlv4670_2 conn=wye bus1=p1rlv4670.2 kV=0.12 model=7 kW=0.23895996617525225 kvar=-0.0 Phases=1
New Generator.pv_load_p1rlv4671_2 conn=wye bus1=p1rlv4671.2 kV=0.12 model=7 kW=0.18635787452797736 kvar=-0.0 Phases=1
New Generator.pv_load_p1rlv4672_2 conn=wye bus1=p1rlv4672.2 kV=0.12 model=7 kW=0.20739811003730133 kvar=-0.0 Phases=1
New Generator.pv_load_p1rlv4676_1 conn=wye bus1=p1rlv4676.1 kV=0.12 model=7 kW=0.470404059651781 kvar=-0.0 Phases=1
New Generator.pv_load_p1rlv4677_1 conn=wye bus1=p1rlv4677.1 kV=0.12 model=7 kW=0.3937574874392436 kvar=-0.0 Phases=1
New Generator.pv_load_p1rlv4678_1 conn=wye bus1=p1rlv4678.1 kV=0.12 model=7 kW=0.17132913487846022 kvar=-0.0 Phases=1
New Generator.pv_load_p1rlv4679_1 conn=wye bus1=p1rlv4679.1 kV=0.12 model=7 kW=0.20890098400225304 kvar=-0.0 Phases=1
New Generator.pv_load_p1rlv4680_1 conn=wye bus1=p1rlv4680.1 kV=0.12 model=7 kW=0.27352606736914165 kvar=-0.0 Phases=1
New Generator.pv_load_p1rlv4680_2 conn=wye bus1=p1rlv4680.2 kV=0.12 model=7 kW=0.27352606736914165 kvar=-0.0 Phases=1
New Generator.pv_load_p1rlv4687_2 conn=wye bus1=p1rlv4687.2 kV=0.12 model=7 kW=0.2043923621073979 kvar=-0.0 Phases=1
New Generator.pv_load_p1rlv4818 conn=wye bus1=p1rlv4818.1.2.3 kV=0.48 model=7 kW=6.071670933363517 kvar=-0.0 Phases=3
New Generator.pv_load_p1rlv4822_1 conn=wye bus1=p1rlv4822.1 kV=0.12 model=7 kW=0.43433508449293984 kvar=-0.0 Phases=1
New Generator.pv_load_p1rlv4823 conn=wye bus1=p1rlv4823.1.2.3 kV=0.48 model=7 kW=22.82889598745091 kvar=-0.0 Phases=3
New Generator.pv_load_p1rlv4824_1 conn=wye bus1=p1rlv4824.1 kV=0.12 model=7 kW=0.33213815200225844 kvar=-0.0 Phases=1
New Generator.pv_load_p1rlv4826_2 conn=wye bus1=p1rlv4826.2 kV=0.12 model=7 kW=0.29456630287846564 kvar=-0.0 Phases=1
New Generator.pv_load_p1rlv5994_2 conn=wye bus1=p1rlv5994.2 kV=0.12 model=7 kW=0.1698262609135085 kvar=-0.0 Phases=1
New Generator.pv_load_p1rlv5995_1 conn=wye bus1=p1rlv5995.1 kV=0.12 model=7 kW=0.21791822779196332 kvar=-0.0 Phases=1
New Generator.pv_load_p1rlv5999_1 conn=wye bus1=p1rlv5999.1 kV=0.12 model=7 kW=0.30959504252798276 kvar=-0.0 Phases=1
New Generator.pv_load_p1rlv5999_2 conn=wye bus1=p1rlv5999.2 kV=0.12 model=7 kW=0.30959504252798276 kvar=-0.0 Phases=1
New Generator.pv_load_p1rlv6001_2 conn=wye bus1=p1rlv6001.2 kV=0.12 model=7 kW=0.25248583185981766 kvar=-0.0 Phases=1
New Generator.pv_load_p1rlv6007_1 conn=wye bus1=p1rlv6007.1 kV=0.12 model=7 kW=0.19838086624759108 kvar=-0.0 Phases=1
New Generator.pv_load_p1rlv6009_1 conn=wye bus1=p1rlv6009.1 kV=0.12 model=7 kW=0.3922546134742919 kvar=-0.0 Phases=1
New Generator.pv_load_p1rlv6011_2 conn=wye bus1=p1rlv6011.2 kV=0.12 model=7 kW=0.3937574874392436 kvar=-0.0 Phases=1
New Generator.pv_load_p1rlv6266_1 conn=wye bus1=p1rlv6266.1 kV=0.12 model=7 kW=0.29456630287846564 kvar=-0.0 Phases=1
New Generator.pv_load_p1rlv6266_2 conn=wye bus1=p1rlv6266.2 kV=0.12 model=7 kW=0.29456630287846564 kvar=-0.0 Phases=1
New Generator.pv_load_p1rlv6267_1 conn=wye bus1=p1rlv6267.1 kV=0.12 model=7 kW=0.2765318152990451 kvar=-0.0 Phases=1
New Generator.pv_load_p1rlv6267_2 conn=wye bus1=p1rlv6267.2 kV=0.12 model=7 kW=0.2765318152990451 kvar=-0.0 Phases=1
New Generator.pv_load_p1rlv6268_2 conn=wye bus1=p1rlv6268.2 kV=0.12 model=7 kW=0.3546812614765341 kvar=-0.0 Phases=1
New Generator.pv_load_p1rlv6269_1 conn=wye bus1=p1rlv6269.1 kV=0.12 model=7 kW=0.2960691768434174 kvar=-0.0 Phases=1
New Generator.pv_load_p1rlv6270_2 conn=wye bus1=p1rlv6270.2 kV=0.12 model=7 kW=0.2915605549485622 kvar=-0.0 Phases=1
New Generator.pv_load_p1rlv6271_1 conn=wye bus1=p1rlv6271.1 kV=0.12 model=7 kW=0.1457802774742811 kvar=-0.0 Phases=1
New Generator.pv_load_p1rlv6273_1 conn=wye bus1=p1rlv6273.1 kV=0.12 model=7 kW=0.2825433111588519 kvar=-0.0 Phases=1
New Generator.pv_load_p1rlv6275_1 conn=wye bus1=p1rlv6275.1 kV=0.12 model=7 kW=0.26150307564952796 kvar=-0.0 Phases=1
New Generator.pv_load_p1rlv6282_2 conn=wye bus1=p1rlv6282.2 kV=0.12 model=7 kW=0.29757205080836907 kvar=-0.0 Phases=1
New Generator.pv_load_p1rlv6289_2 conn=wye bus1=p1rlv6289.2 kV=0.12 model=7 kW=0.2765318152990451 kvar=-0.0 Phases=1
New Generator.pv_load_p1rlv6291_2 conn=wye bus1=p1rlv6291.2 kV=0.12 model=7 kW=0.22843984842059023 kvar=-0.0 Phases=1
New Generator.pv_load_p1rlv6292_2 conn=wye bus1=p1rlv6292.2 kV=0.12 model=7 kW=0.26901744547428647 kvar=-0.0 Phases=1
New Generator.pv_load_p1rlv6294_2 conn=wye bus1=p1rlv6294.2 kV=0.12 model=7 kW=0.3306352780373067 kvar=-0.0 Phases=1
New Generator.pv_load_p1rlv6295_2 conn=wye bus1=p1rlv6295.2 kV=0.12 model=7 kW=0.3471668916517756 kvar=-0.0 Phases=1
New Generator.pv_load_p1rlv6299_1 conn=wye bus1=p1rlv6299.1 kV=0.12 model=7 kW=0.3005777987382725 kvar=-0.0 Phases=1
New Generator.pv_load_p1rlv6303_2 conn=wye bus1=p1rlv6303.2 kV=0.12 model=7 kW=0.20138661417749446 kvar=-0.0 Phases=1
New Generator.pv_load_p1rlv6305_1 conn=wye bus1=p1rlv6305.1 kV=0.12 model=7 kW=0.2810404371939002 kvar=-0.0 Phases=1
New Generator.pv_load_p1rlv6305_2 conn=wye bus1=p1rlv6305.2 kV=0.12 model=7 kW=0.2810404371939002 kvar=-0.0 Phases=1
New Generator.pv_load_p1rlv6306_1 conn=wye bus1=p1rlv6306.1 kV=0.12 model=7 kW=0.35317838751158254 kvar=-0.0 Phases=1
New Generator.pv_load_p1rlv6306_2 conn=wye bus1=p1rlv6306.2 kV=0.12 model=7 kW=0.35317838751158254 kvar=-0.0 Phases=1
New Generator.pv_load_p1rlv6312_1 conn=wye bus1=p1rlv6312.1 kV=0.12 model=7 kW=0.2915605549485622 kvar=-0.0 Phases=1
New Generator.pv_load_p1rlv6313_1 conn=wye bus1=p1rlv6313.1 kV=0.12 model=7 kW=0.2058952360723496 kvar=-0.0 Phases=1
New Generator.pv_load_p1rlv6313_2 conn=wye bus1=p1rlv6313.2 kV=0.12 model=7 kW=0.2058952360723496 kvar=-0.0 Phases=1
New Generator.pv_load_p1rlv6315_2 conn=wye bus1=p1rlv6315.2 kV=0.12 model=7 kW=0.4178034708784711 kvar=-0.0 Phases=1
New Generator.pv_load_p1rlv6317_2 conn=wye bus1=p1rlv6317.2 kV=0.12 model=7 kW=0.18936362245788077 kvar=-0.0 Phases=1
New Generator.pv_load_p1rlv6319_2 conn=wye bus1=p1rlv6319.2 kV=0.12 model=7 kW=0.2675145715093348 kvar=-0.0 Phases=1
New Generator.pv_load_p1rlv6320_2 conn=wye bus1=p1rlv6320.2 kV=0.12 model=7 kW=0.26300594961447965 kvar=-0.0 Phases=1
New Generator.pv_load_p1rlv6328_1 conn=wye bus1=p1rlv6328.1 kV=0.12 model=7 kW=0.3516755135466307 kvar=-0.0 Phases=1
New Generator.pv_load_p1rlv6329_2 conn=wye bus1=p1rlv6329.2 kV=0.12 model=7 kW=0.28855480701865877 kvar=-0.0 Phases=1
New Generator.pv_load_p1rlv6334_2 conn=wye bus1=p1rlv6334.2 kV=0.12 model=7 kW=0.24797720996496253 kvar=-0.0 Phases=1
New Generator.pv_load_p1rlv6338_2 conn=wye bus1=p1rlv6338.2 kV=0.12 model=7 kW=0.19687799228263936 kvar=-0.0 Phases=1
New Generator.pv_load_p1rlv6339_2 conn=wye bus1=p1rlv6339.2 kV=0.12 model=7 kW=0.25248583185981766 kvar=-0.0 Phases=1
New Generator.pv_load_p1rlv6341_1 conn=wye bus1=p1rlv6341.1 kV=0.12 model=7 kW=0.339652521827017 kvar=-0.0 Phases=1
New Generator.pv_load_p1rlv6342_1 conn=wye bus1=p1rlv6342.1 kV=0.12 model=7 kW=0.2930634289135139 kvar=-0.0 Phases=1
New Generator.pv_load_p1rlv6342_2 conn=wye bus1=p1rlv6342.2 kV=0.12 model=7 kW=0.2930634289135139 kvar=-0.0 Phases=1
New Generator.pv_load_p1rlv6343_1 conn=wye bus1=p1rlv6343.1 kV=0.12 model=7 kW=0.23745709221030054 kvar=-0.0 Phases=1
New Generator.pv_load_p1rlv6343_2 conn=wye bus1=p1rlv6343.2 kV=0.12 model=7 kW=0.23745709221030054 kvar=-0.0 Phases=1
New Generator.pv_load_p1rlv6346_2 conn=wye bus1=p1rlv6346.2 kV=0.12 model=7 kW=0.24797720996496253 kvar=-0.0 Phases=1
New Generator.pv_load_p1rlv6348_1 conn=wye bus1=p1rlv6348.1 kV=0.12 model=7 kW=0.3126007904578862 kvar=-0.0 Phases=1
New Generator.pv_load_p1rlv6351_2 conn=wye bus1=p1rlv6351.2 kV=0.12 model=7 kW=0.4313293365630364 kvar=-0.0 Phases=1
New Generator.pv_load_p1rlv6355_2 conn=wye bus1=p1rlv6355.2 kV=0.12 model=7 kW=0.3261266561424516 kvar=-0.0 Phases=1
New Generator.pv_load_p1rlv6360_1 conn=wye bus1=p1rlv6360.1 kV=0.12 model=7 kW=0.21942110175691504 kvar=-0.0 Phases=1
New Generator.pv_load_p1rlv6362_1 conn=wye bus1=p1rlv6362.1 kV=0.12 model=7 kW=0.2058952360723496 kvar=-0.0 Phases=1
New Generator.pv_load_p1rlv6363_1 conn=wye bus1=p1rlv6363.1 kV=0.12 model=7 kW=0.2554915797897211 kvar=-0.0 Phases=1
New Generator.pv_load_p1rlv6366_2 conn=wye bus1=p1rlv6366.2 kV=0.12 model=7 kW=0.21791822779196332 kvar=-0.0 Phases=1
New Generator.pv_load_p1rlv6710_2 conn=wye bus1=p1rlv6710.2 kV=0.12 model=7 kW=0.23144559635049367 kvar=-0.0 Phases=1
New Generator.pv_load_p1rlv6714_2 conn=wye bus1=p1rlv6714.2 kV=0.12 model=7 kW=0.44184945431769845 kvar=-0.0 Phases=1
New Generator.pv_load_p1rlv6718_1 conn=wye bus1=p1rlv6718.1 kV=0.12 model=7 kW=0.4193063448434227 kvar=-0.0 Phases=1
New Generator.pv_load_p1rlv6719_1 conn=wye bus1=p1rlv6719.1 kV=0.12 model=7 kW=0.3546812614765341 kvar=-0.0 Phases=1
New Generator.pv_load_p1rlv6721_1 conn=wye bus1=p1rlv6721.1 kV=0.12 model=7 kW=0.40728335312380903 kvar=-0.0 Phases=1
New Generator.pv_load_p1rlv6723_1 conn=wye bus1=p1rlv6723.1 kV=0.12 model=7 kW=0.28855480701865877 kvar=-0.0 Phases=1
New Generator.pv_load_p1rlv6725_1 conn=wye bus1=p1rlv6725.1 kV=0.12 model=7 kW=0.5605780004228488 kvar=-0.0 Phases=1
New Generator.pv_load_p1rlv6727_1 conn=wye bus1=p1rlv6727.1 kV=0.12 model=7 kW=0.20890098400225304 kvar=-0.0 Phases=1
New Generator.pv_load_p1rlv6731_2 conn=wye bus1=p1rlv6731.2 kV=0.12 model=7 kW=1.1587278499694902 kvar=-0.0 Phases=1
New Generator.pv_load_p1rlv6732_1 conn=wye bus1=p1rlv6732.1 kV=0.12 model=7 kW=0.3336410259672101 kvar=-0.0 Phases=1
New Generator.pv_load_p1rlv6738_2 conn=wye bus1=p1rlv6738.2 kV=0.12 model=7 kW=0.22693697445563854 kvar=-0.0 Phases=1
New Generator.pv_load_p1rlv6739_1 conn=wye bus1=p1rlv6739.1 kV=0.12 model=7 kW=0.0616184337126062 kvar=-0.0 Phases=1
New Generator.pv_load_p1rlv6740_1 conn=wye bus1=p1rlv6740.1 kV=0.12 model=7 kW=0.2344513442803971 kvar=-0.0 Phases=1
New Generator.pv_load_p1rlv6742_2 conn=wye bus1=p1rlv6742.2 kV=0.12 model=7 kW=0.17283200884341193 kvar=-0.0 Phases=1
New Generator.pv_load_p1rlv6745_2 conn=wye bus1=p1rlv6745.2 kV=0.12 model=7 kW=0.2539887058247694 kvar=-0.0 Phases=1
New Generator.pv_load_p1rlv6749_1 conn=wye bus1=p1rlv6749.1 kV=0.12 model=7 kW=0.2660116975443831 kvar=-0.0 Phases=1
New Generator.pv_load_p1rlv6750_2 conn=wye bus1=p1rlv6750.2 kV=0.12 model=7 kW=0.20739811003730133 kvar=-0.0 Phases=1
New Generator.pv_load_p1rlv6758_2 conn=wye bus1=p1rlv6758.2 kV=0.12 model=7 kW=0.3126007904578862 kvar=-0.0 Phases=1
New Generator.pv_load_p1rlv6759_2 conn=wye bus1=p1rlv6759.2 kV=0.12 model=7 kW=0.2600002016845762 kvar=-0.0 Phases=1
New Generator.pv_load_p1rlv6760_2 conn=wye bus1=p1rlv6760.2 kV=0.12 model=7 kW=0.2058952360723496 kvar=-0.0 Phases=1
New Generator.pv_load_p1rlv6762_2 conn=wye bus1=p1rlv6762.2 kV=0.12 model=7 kW=0.2960691768434174 kvar=-0.0 Phases=1
New Generator.pv_load_p1rlv6763_1 conn=wye bus1=p1rlv6763.1 kV=0.12 model=7 kW=0.39526036140419535 kvar=-0.0 Phases=1
New Generator.pv_load_p1rlv6765_1 conn=wye bus1=p1rlv6765.1 kV=0.12 model=7 kW=0.3020806727032242 kvar=-0.0 Phases=1
New Generator.pv_load_p1rlv6766_2 conn=wye bus1=p1rlv6766.2 kV=0.12 model=7 kW=0.2344513442803971 kvar=-0.0 Phases=1
New Generator.pv_load_p1rlv6767_2 conn=wye bus1=p1rlv6767.2 kV=0.12 model=7 kW=0.3486697656167273 kvar=-0.0 Phases=1
New Generator.pv_load_p1rlv6771_2 conn=wye bus1=p1rlv6771.2 kV=0.12 model=7 kW=0.35017263958167905 kvar=-0.0 Phases=1
New Generator.pv_load_p1rlv6773_2 conn=wye bus1=p1rlv6773.2 kV=0.12 model=7 kW=0.15780326919389484 kvar=-0.0 Phases=1
New Generator.pv_load_p1rlv6775_1 conn=wye bus1=p1rlv6775.1 kV=0.12 model=7 kW=0.43433508449293984 kvar=-0.0 Phases=1
New Generator.pv_load_p1rlv6776_1 conn=wye bus1=p1rlv6776.1 kV=0.12 model=7 kW=0.32161803424759644 kvar=-0.0 Phases=1
New Generator.pv_load_p1rlv6777_2 conn=wye bus1=p1rlv6777.2 kV=0.12 model=7 kW=0.29907492477332076 kvar=-0.0 Phases=1
New Generator.pv_load_p1rlv6781_2 conn=wye bus1=p1rlv6781.2 kV=0.12 model=7 kW=0.4779184294765395 kvar=-0.0 Phases=1
New Generator.pv_load_p1rlv6785_1 conn=wye bus1=p1rlv6785.1 kV=0.12 model=7 kW=1.0054332026704507 kvar=-0.0 Phases=1
New Generator.pv_load_p1rlv6786_1 conn=wye bus1=p1rlv6786.1 kV=0.12 model=7 kW=0.8566471772662659 kvar=-0.0 Phases=1
New Generator.pv_load_p1rlv6788_2 conn=wye bus1=p1rlv6788.2 kV=0.12 model=7 kW=0.35317838751158254 kvar=-0.0 Phases=1
New Generator.pv_load_p1rlv6790_2 conn=wye bus1=p1rlv6790.2 kV=0.12 model=7 kW=0.25699445375467284 kvar=-0.0 Phases=1
New Generator.pv_load_p1rlv6793_2 conn=wye bus1=p1rlv6793.2 kV=0.12 model=7 kW=0.30358354666817594 kvar=-0.0 Phases=1
New Generator.pv_load_p1rlv6794_1 conn=wye bus1=p1rlv6794.1 kV=0.12 model=7 kW=0.21942110175691504 kvar=-0.0 Phases=1
New Generator.pv_load_p1rlv6797_1 conn=wye bus1=p1rlv6797.1 kV=0.12 model=7 kW=2.3850910398576675 kvar=-0.0 Phases=1
New Generator.pv_load_p1rlv6803_2 conn=wye bus1=p1rlv6803.2 kV=0.12 model=7 kW=0.39075173950934017 kvar=-0.0 Phases=1
New Generator.pv_load_p1rlv6806_1 conn=wye bus1=p1rlv6806.1 kV=0.12 model=7 kW=0.548555008703235 kvar=-0.0 Phases=1
New Generator.pv_load_p1rlv6807_1 conn=wye bus1=p1rlv6807.1 kV=0.12 model=7 kW=0.34115539579196874 kvar=-0.0 Phases=1
New Generator.pv_load_p1rlv6807_2 conn=wye bus1=p1rlv6807.2 kV=0.12 model=7 kW=0.34115539579196874 kvar=-0.0 Phases=1
New Generator.pv_load_p1rlv6809_2 conn=wye bus1=p1rlv6809.2 kV=0.12 model=7 kW=0.506473034810622 kvar=-0.0 Phases=1
New Generator.pv_load_p1rlv6812_2 conn=wye bus1=p1rlv6812.2 kV=0.12 model=7 kW=0.23595421824534882 kvar=-0.0 Phases=1
New Generator.pv_load_p1rlv6814_2 conn=wye bus1=p1rlv6814.2 kV=0.12 model=7 kW=0.3546812614765341 kvar=-0.0 Phases=1
New Generator.pv_load_p1rlv6817_1 conn=wye bus1=p1rlv6817.1 kV=0.12 model=7 kW=0.23895996617525225 kvar=-0.0 Phases=1
New Generator.pv_load_p1rlv6820_1 conn=wye bus1=p1rlv6820.1 kV=0.12 model=7 kW=0.33664677389711356 kvar=-0.0 Phases=1
New Generator.pv_load_p1rlv6821_2 conn=wye bus1=p1rlv6821.2 kV=0.12 model=7 kW=0.26150307564952796 kvar=-0.0 Phases=1
New Generator.pv_load_p1rlv6822_1 conn=wye bus1=p1rlv6822.1 kV=0.12 model=7 kW=0.2675145715093348 kvar=-0.0 Phases=1
New Generator.pv_load_p1rlv6824_1 conn=wye bus1=p1rlv6824.1 kV=0.12 model=7 kW=0.39075173950934017 kvar=-0.0 Phases=1
New Generator.pv_load_p1rlv6825_1 conn=wye bus1=p1rlv6825.1 kV=0.12 model=7 kW=0.4298264625980847 kvar=-0.0 Phases=1
New Generator.pv_load_p1rlv6830_1 conn=wye bus1=p1rlv6830.1 kV=0.12 model=7 kW=0.3141036644228379 kvar=-0.0 Phases=1
New Generator.pv_load_p1rlv6832_1 conn=wye bus1=p1rlv6832.1 kV=0.12 model=7 kW=0.22843984842059023 kvar=-0.0 Phases=1
New Generator.pv_load_p1rlv6838_1 conn=wye bus1=p1rlv6838.1 kV=0.12 model=7 kW=0.09919073369858854 kvar=-0.0 Phases=1
New Generator.pv_load_p1rlv6839_2 conn=wye bus1=p1rlv6839.2 kV=0.12 model=7 kW=1.6667022558710993 kvar=-0.0 Phases=1
New Generator.pv_load_p1rlv6846_1 conn=wye bus1=p1rlv6846.1 kV=0.12 model=7 kW=0.3231209082125482 kvar=-0.0 Phases=1
New Generator.pv_load_p1rlv6849_1 conn=wye bus1=p1rlv6849.1 kV=0.12 model=7 kW=0.19988374021254274 kvar=-0.0 Phases=1
New Generator.pv_load_p1rlv6856_2 conn=wye bus1=p1rlv6856.2 kV=0.12 model=7 kW=0.28855480701865877 kvar=-0.0 Phases=1
New Generator.pv_load_p1rlv7693_2 conn=wye bus1=p1rlv7693.2 kV=0.12 model=7 kW=0.8671672950209282 kvar=-0.0 Phases=1
New Generator.pv_load_p1rlv7696_1 conn=wye bus1=p1rlv7696.1 kV=0.12 model=7 kW=0.21040385796720473 kvar=-0.0 Phases=1
New Generator.pv_load_p1rlv7698_1 conn=wye bus1=p1rlv7698.1 kV=0.12 model=7 kW=0.14728315143923282 kvar=-0.0 Phases=1
New Generator.pv_load_p1rlv7700_1 conn=wye bus1=p1rlv7700.1 kV=0.12 model=7 kW=0.18635787452797736 kvar=-0.0 Phases=1
New Generator.pv_load_p1rlv7702_1 conn=wye bus1=p1rlv7702.1 kV=0.12 model=7 kW=0.14728315143923282 kvar=-0.0 Phases=1
New Generator.pv_load_p1rlv7704_2 conn=wye bus1=p1rlv7704.2 kV=0.12 model=7 kW=0.3486697656167273 kvar=-0.0 Phases=1
New Generator.pv_load_p1rlv7706_1 conn=wye bus1=p1rlv7706.1 kV=0.12 model=7 kW=0.2043923621073979 kvar=-0.0 Phases=1
New Generator.pv_load_p1rlv7709_2 conn=wye bus1=p1rlv7709.2 kV=0.12 model=7 kW=0.19387224435273592 kvar=-0.0 Phases=1
New Generator.pv_load_p1rlv7710_1 conn=wye bus1=p1rlv7710.1 kV=0.12 model=7 kW=2.936645784994946 kvar=-0.0 Phases=1
New Generator.pv_load_p1rlv7713_1 conn=wye bus1=p1rlv7713.1 kV=0.12 model=7 kW=0.3997689832990505 kvar=-0.0 Phases=1
New Generator.pv_load_p1rlv7716_1 conn=wye bus1=p1rlv7716.1 kV=0.12 model=7 kW=0.14878602540418454 kvar=-0.0 Phases=1
New Generator.pv_load_p1rlv7722_1 conn=wye bus1=p1rlv7722.1 kV=0.12 model=7 kW=0.2705203194392382 kvar=-0.0 Phases=1
New Generator.pv_load_p1rlv8070_2 conn=wye bus1=p1rlv8070.2 kV=0.12 model=7 kW=0.6462418164250964 kvar=-0.0 Phases=1
New Generator.pv_load_p1rlv8071_2 conn=wye bus1=p1rlv8071.2 kV=0.12 model=7 kW=0.8716759169157832 kvar=-0.0 Phases=1
New Generator.pv_load_p1rlv8072_1 conn=wye bus1=p1rlv8072.1 kV=0.12 model=7 kW=0.6191900850559655 kvar=-0.0 Phases=1
New Generator.pv_load_p1rlv8072_2 conn=wye bus1=p1rlv8072.2 kV=0.12 model=7 kW=0.6191900850559655 kvar=-0.0 Phases=1
New Generator.pv_load_p1rlv8080_2 conn=wye bus1=p1rlv8080.2 kV=0.12 model=7 kW=0.2464743360000108 kvar=-0.0 Phases=1
New Generator.pv_load_p1rlv8164_2 conn=wye bus1=p1rlv8164.2 kV=0.12 model=7 kW=0.14277437925698117 kvar=-0.0 Phases=1
New Generator.pv_load_p1rlv8179_2 conn=wye bus1=p1rlv8179.2 kV=0.12 model=7 kW=0.5831211098971244 kvar=-0.0 Phases=1
New Generator.pv_load_p1rlv8183_2 conn=wye bus1=p1rlv8183.2 kV=0.12 model=7 kW=0.3156065383877897 kvar=-0.0 Phases=1
New Generator.pv_load_p1rlv8186_1 conn=wye bus1=p1rlv8186.1 kV=0.12 model=7 kW=0.4824270513713947 kvar=-0.0 Phases=1
New Generator.pv_load_p1rlv8189_1 conn=wye bus1=p1rlv8189.1 kV=0.12 model=7 kW=0.25098295789486597 kvar=-0.0 Phases=1
New Generator.pv_load_p1rlv8197_2 conn=wye bus1=p1rlv8197.2 kV=0.12 model=7 kW=0.5500578826681867 kvar=-0.0 Phases=1
New Generator.pv_load_p1rlv8198_2 conn=wye bus1=p1rlv8198.2 kV=0.12 model=7 kW=0.329132404072355 kvar=-0.0 Phases=1
New Generator.pv_load_p1rlv8204_1 conn=wye bus1=p1rlv8204.1 kV=0.12 model=7 kW=0.3636985052662444 kvar=-0.0 Phases=1
New Generator.pv_load_p1rlv8209_1 conn=wye bus1=p1rlv8209.1 kV=0.12 model=7 kW=0.5305205211238144 kvar=-0.0 Phases=1
New Generator.pv_load_p1rlv8211_1 conn=wye bus1=p1rlv8211.1 kV=0.12 model=7 kW=0.23294847031544538 kvar=-0.0 Phases=1
New Generator.pv_load_p1rlv8214_1 conn=wye bus1=p1rlv8214.1 kV=0.12 model=7 kW=0.36820712716109955 kvar=-0.0 Phases=1
New Generator.pv_load_p1rlv8214_2 conn=wye bus1=p1rlv8214.2 kV=0.12 model=7 kW=0.36820712716109955 kvar=-0.0 Phases=1
New Generator.pv_load_p1rlv8216_1 conn=wye bus1=p1rlv8216.1 kV=0.12 model=7 kW=0.2720231934041899 kvar=-0.0 Phases=1
New Generator.pv_load_p1rlv8216_2 conn=wye bus1=p1rlv8216.2 kV=0.12 model=7 kW=0.2720231934041899 kvar=-0.0 Phases=1
New Generator.pv_load_p1rlv8218_1 conn=wye bus1=p1rlv8218.1 kV=0.12 model=7 kW=0.23294847031544538 kvar=-0.0 Phases=1
New Generator.pv_load_p1rlv8222_2 conn=wye bus1=p1rlv8222.2 kV=0.12 model=7 kW=0.40427760519390565 kvar=-0.0 Phases=1
New Generator.pv_load_p1rlv8223_1 conn=wye bus1=p1rlv8223.1 kV=0.12 model=7 kW=0.3652013792311961 kvar=-0.0 Phases=1
New Generator.pv_load_p1rlv8224_1 conn=wye bus1=p1rlv8224.1 kV=0.12 model=7 kW=0.5215017744601392 kvar=-0.0 Phases=1
New Generator.pv_load_p1rlv8228_1 conn=wye bus1=p1rlv8228.1 kV=0.12 model=7 kW=0.371212875091003 kvar=-0.0 Phases=1
New Generator.pv_load_p1rlv8229_2 conn=wye bus1=p1rlv8229.2 kV=0.12 model=7 kW=0.38173449571962986 kvar=-0.0 Phases=1
New Generator.pv_load_p1rlv8231_1 conn=wye bus1=p1rlv8231.1 kV=0.12 model=7 kW=0.18635787452797736 kvar=-0.0 Phases=1
New Generator.pv_load_p1rlv8231_2 conn=wye bus1=p1rlv8231.2 kV=0.12 model=7 kW=0.18635787452797736 kvar=-0.0 Phases=1
New Generator.pv_load_p1rlv8232_2 conn=wye bus1=p1rlv8232.2 kV=0.12 model=7 kW=0.2584973277196246 kvar=-0.0 Phases=1
New Generator.pv_load_p1rlv8236_1 conn=wye bus1=p1rlv8236.1 kV=0.12 model=7 kW=0.32011516028264475 kvar=-0.0 Phases=1
New Generator.pv_load_p1rlv8240_1 conn=wye bus1=p1rlv8240.1 kV=0.12 model=7 kW=0.49294716912605674 kvar=-0.0 Phases=1
New Generator.pv_load_p1rlv8241_2 conn=wye bus1=p1rlv8241.2 kV=0.12 model=7 kW=0.3546812614765341 kvar=-0.0 Phases=1
New Generator.pv_load_p1rlv8243_2 conn=wye bus1=p1rlv8243.2 kV=0.12 model=7 kW=0.501964412915767 kvar=-0.0 Phases=1
New Generator.pv_load_p1rlv8244_2 conn=wye bus1=p1rlv8244.2 kV=0.12 model=7 kW=0.49745579102091175 kvar=-0.0 Phases=1
New Generator.pv_load_p1rlv8245_2 conn=wye bus1=p1rlv8245.2 kV=0.12 model=7 kW=0.15179177333408797 kvar=-0.0 Phases=1
New Generator.pv_load_p1rlv8246_1 conn=wye bus1=p1rlv8246.1 kV=0.12 model=7 kW=0.3020806727032242 kvar=-0.0 Phases=1
New Generator.pv_load_p1rlv8246_2 conn=wye bus1=p1rlv8246.2 kV=0.12 model=7 kW=0.3020806727032242 kvar=-0.0 Phases=1
New Generator.pv_load_p1rlv8247_1 conn=wye bus1=p1rlv8247.1 kV=0.12 model=7 kW=0.19687799228263936 kvar=-0.0 Phases=1
New Generator.pv_load_p1rlv8248_2 conn=wye bus1=p1rlv8248.2 kV=0.12 model=7 kW=0.41179197501866416 kvar=-0.0 Phases=1
New Generator.pv_load_p1rlv8251_1 conn=wye bus1=p1rlv8251.1 kV=0.12 model=7 kW=0.20739811003730133 kvar=-0.0 Phases=1
New Generator.pv_load_p1rlv8254_1 conn=wye bus1=p1rlv8254.1 kV=0.12 model=7 kW=0.33213815200225844 kvar=-0.0 Phases=1
New Generator.pv_load_p1rlv8441_2 conn=wye bus1=p1rlv8441.2 kV=0.12 model=7 kW=1.5073976155862174 kvar=-0.0 Phases=1
New Generator.pv_load_p1rlv8444_2 conn=wye bus1=p1rlv8444.2 kV=0.12 model=7 kW=0.3336410259672101 kvar=-0.0 Phases=1
New Generator.pv_load_p1rlv8446_2 conn=wye bus1=p1rlv8446.2 kV=0.12 model=7 kW=0.1352600094322226 kvar=-0.0 Phases=1
New Generator.pv_load_p1rlv8447_1 conn=wye bus1=p1rlv8447.1 kV=0.12 model=7 kW=0.1563003952289431 kvar=-0.0 Phases=1
New Generator.pv_load_p1rlv8450_2 conn=wye bus1=p1rlv8450.2 kV=0.12 model=7 kW=0.12924851357241576 kvar=-0.0 Phases=1
New Generator.pv_load_p1rlv8451_1 conn=wye bus1=p1rlv8451.1 kV=0.12 model=7 kW=0.13375713546727092 kvar=-0.0 Phases=1
New Generator.pv_load_p1rlv8451_2 conn=wye bus1=p1rlv8451.2 kV=0.12 model=7 kW=0.13375713546727092 kvar=-0.0 Phases=1
New Generator.pv_load_p1rlv8452_2 conn=wye bus1=p1rlv8452.2 kV=0.12 model=7 kW=0.3727157490559547 kvar=-0.0 Phases=1
New Generator.pv_load_p1rlv8454_1 conn=wye bus1=p1rlv8454.1 kV=0.12 model=7 kW=0.24948008392991425 kvar=-0.0 Phases=1
New Generator.pv_load_p1rlv8456_1 conn=wye bus1=p1rlv8456.1 kV=0.12 model=7 kW=0.26901744547428647 kvar=-0.0 Phases=1
New Generator.pv_load_p1rlv8463_1 conn=wye bus1=p1rlv8463.1 kV=0.12 model=7 kW=1.2098255647778484 kvar=-0.0 Phases=1
New Generator.pv_load_p1rlv8464_1 conn=wye bus1=p1rlv8464.1 kV=0.12 model=7 kW=0.1803463786681705 kvar=-0.0 Phases=1
New Generator.pv_load_p1rlv8465_1 conn=wye bus1=p1rlv8465.1 kV=0.12 model=7 kW=0.3156065383877897 kvar=-0.0 Phases=1
New Generator.pv_load_p1rlv8467_1 conn=wye bus1=p1rlv8467.1 kV=0.12 model=7 kW=0.18936362245788077 kvar=-0.0 Phases=1
New Generator.pv_load_p1rlv8468_1 conn=wye bus1=p1rlv8468.1 kV=0.12 model=7 kW=0.2825433111588519 kvar=-0.0 Phases=1
New Generator.pv_load_p1rlv8472_2 conn=wye bus1=p1rlv8472.2 kV=0.12 model=7 kW=0.15479752126399138 kvar=-0.0 Phases=1
New Generator.pv_load_p1rlv8473_1 conn=wye bus1=p1rlv8473.1 kV=0.12 model=7 kW=0.17734063073826706 kvar=-0.0 Phases=1
New Generator.pv_load_p1rlv8476_1 conn=wye bus1=p1rlv8476.1 kV=0.12 model=7 kW=0.18936362245788077 kvar=-0.0 Phases=1
New Generator.pv_load_p1rlv8478_1 conn=wye bus1=p1rlv8478.1 kV=0.12 model=7 kW=0.3050864206331276 kvar=-0.0 Phases=1
New Generator.pv_load_p1rlv8481_1 conn=wye bus1=p1rlv8481.1 kV=0.12 model=7 kW=0.5756067400723658 kvar=-0.0 Phases=1
New Generator.pv_load_p1rlv8491_1 conn=wye bus1=p1rlv8491.1 kV=0.12 model=7 kW=1.8410356358054978 kvar=-0.0 Phases=1
New Generator.pv_load_p1rlv8492_1 conn=wye bus1=p1rlv8492.1 kV=0.12 model=7 kW=0.27502894133409334 kvar=-0.0 Phases=1
New Generator.pv_load_p1rlv8494_1 conn=wye bus1=p1rlv8494.1 kV=0.12 model=7 kW=0.16381476505370163 kvar=-0.0 Phases=1
New Generator.pv_load_p1rlv8495_1 conn=wye bus1=p1rlv8495.1 kV=0.12 model=7 kW=0.13976863132707776 kvar=-0.0 Phases=1
New Generator.pv_load_p1rlv8497_1 conn=wye bus1=p1rlv8497.1 kV=0.12 model=7 kW=0.21040385796720473 kvar=-0.0 Phases=1
New Generator.pv_load_p1rlv8498_1 conn=wye bus1=p1rlv8498.1 kV=0.12 model=7 kW=1.0640452873035673 kvar=-0.0 Phases=1
New Generator.pv_load_p1rlv8503_1 conn=wye bus1=p1rlv8503.1 kV=0.12 model=7 kW=0.22543410049068682 kvar=-0.0 Phases=1
New Generator.pv_load_p1rlv8504_1 conn=wye bus1=p1rlv8504.1 kV=0.12 model=7 kW=0.32161803424759644 kvar=-0.0 Phases=1
New Generator.pv_load_p1rlv8506_2 conn=wye bus1=p1rlv8506.2 kV=0.12 model=7 kW=0.19838086624759108 kvar=-0.0 Phases=1
New Generator.pv_load_p1rlv8510_1 conn=wye bus1=p1rlv8510.1 kV=0.12 model=7 kW=0.736415757196164 kvar=-0.0 Phases=1
New Generator.pv_load_p1rlv8514_2 conn=wye bus1=p1rlv8514.2 kV=0.12 model=7 kW=0.3306352780373067 kvar=-0.0 Phases=1
New Generator.pv_load_p1rlv8516_1 conn=wye bus1=p1rlv8516.1 kV=0.12 model=7 kW=0.17884350470321878 kvar=-0.0 Phases=1
New Generator.pv_load_p1rlv8517_2 conn=wye bus1=p1rlv8517.2 kV=0.12 model=7 kW=0.24797720996496253 kvar=-0.0 Phases=1
New Generator.pv_load_p1rlv8518_2 conn=wye bus1=p1rlv8518.2 kV=0.12 model=7 kW=0.17433488280836365 kvar=-0.0 Phases=1
New Generator.pv_load_p1rlv8519_2 conn=wye bus1=p1rlv8519.2 kV=0.12 model=7 kW=0.13375713546727092 kvar=-0.0 Phases=1
New Generator.pv_load_p1rlv8522_1 conn=wye bus1=p1rlv8522.1 kV=0.12 model=7 kW=0.1457802774742811 kvar=-0.0 Phases=1
New Generator.pv_load_p1rlv8522_2 conn=wye bus1=p1rlv8522.2 kV=0.12 model=7 kW=0.1457802774742811 kvar=-0.0 Phases=1
New Generator.pv_load_p1rlv8525_2 conn=wye bus1=p1rlv8525.2 kV=0.12 model=7 kW=0.4523695720723605 kvar=-0.0 Phases=1
New Generator.pv_load_p1rlv8526_1 conn=wye bus1=p1rlv8526.1 kV=0.12 model=7 kW=0.2765318152990451 kvar=-0.0 Phases=1
New Generator.pv_load_p1rlv8527_2 conn=wye bus1=p1rlv8527.2 kV=0.12 model=7 kW=0.1563003952289431 kvar=-0.0 Phases=1
New Generator.pv_load_p1rlv8528_2 conn=wye bus1=p1rlv8528.2 kV=0.12 model=7 kW=0.22242684968681845 kvar=-0.0 Phases=1
New Generator.pv_load_p1rlv8531_1 conn=wye bus1=p1rlv8531.1 kV=0.12 model=7 kW=0.2464743360000108 kvar=-0.0 Phases=1
New Generator.pv_load_p1rlv8533_1 conn=wye bus1=p1rlv8533.1 kV=0.12 model=7 kW=0.3020806727032242 kvar=-0.0 Phases=1