New Line.l(r:p6udm6665-p6ulv11963) Units=km Length=0.00395304 bus1=p6udm6665.1.2 bus2=p6ulv11963.1.2 switch=n enabled=y phases=2 Linecode=1P_UG_AL_1/0_Brenau_2

New Line.l(r:p6udm6664-p6ulv6288) Units=km Length=0.007529320000000001 bus1=p6udm6664.1.2 bus2=p6ulv6288.1.2 switch=n enabled=y phases=2 Linecode=1P_UG_AL_1/0_Brenau_2

New Line.l(r:p6udm6664-p6udm6665) Units=km Length=0.0301252 bus1=p6udm6665.1.2 bus2=p6udm6664.1.2 switch=n enabled=y phases=2 Linecode=1P_UG_AL_1/0_Brenau_2

New Line.l(r:p6udm6665-p6udt2026lv) Units=km Length=0.008060400000000002 bus1=p6udt2026lv.1.2 bus2=p6udm6665.1.2 switch=n enabled=y phases=2 Linecode=1P_UG_AL_1/0_Brenau_2

New Line.l(r:p6udm6666-p6ulv11964) Units=km Length=0.015017600000000002 bus1=p6udm6666.1.2 bus2=p6ulv11964.1.2 switch=n enabled=y phases=2 Linecode=1P_UG_AL_1/0_Brenau_2

New Line.l(r:p6udm6667-p6ulv11965) Units=km Length=0.00602224 bus1=p6udm6667.1.2 bus2=p6ulv11965.1.2 switch=n enabled=y phases=2 Linecode=1P_UG_AL_1/0_Brenau_2

New Line.l(r:p6udm6666-p6udm6667) Units=km Length=0.0251641 bus1=p6udm6666.1.2 bus2=p6udm6667.1.2 switch=n enabled=y phases=2 Linecode=1P_UG_AL_1/0_Brenau_2

New Line.l(r:p6udm6666-p6udt2026lv) Units=km Length=0.0164481 bus1=p6udt2026lv.1.2 bus2=p6udm6666.1.2 switch=n enabled=y phases=2 Linecode=1P_UG_AL_1/0_Brenau_2

New Line.l(r:p6udt2263lv-p6ulv7111) Units=km Length=0.0562579 bus1=p6udt2263lv.1.2 bus2=p6ulv7111.1.2 switch=n enabled=y phases=2 Linecode=1P_OH_AL_4/0_Zuzara_2

New Line.l(r:p6udt2263lv-p6ulv7112) Units=km Length=0.0454647 bus1=p6udt2263lv.1.2 bus2=p6ulv7112.1.2 switch=n enabled=y phases=2 Linecode=1P_OH_AL_4/0_Zuzara_2

New Line.l(r:p6udm7574-p6ulv7113) Units=km Length=0.0199462 bus1=p6udm7574.1.2 bus2=p6ulv7113.1.2 switch=n enabled=y phases=2 Linecode=1P_OH_AL_2/0_Rucina_2

New Line.l(r:p6udm7574-p6udt2263lv) Units=km Length=0.00954832 bus1=p6udt2263lv.1.2 bus2=p6udm7574.1.2 switch=n enabled=y phases=2 Linecode=1P_OH_AL_2/0_Rucina_2

New Line.l(r:p6udm8649-p6ulv8117) Units=km Length=0.00471191 bus1=p6udm8649.1.2 bus2=p6ulv8117.1.2 switch=n enabled=y phases=2 Linecode=1P_UG_AL_4/0_Sweetbriar_2

New Line.l(r:p6udm8649-p6udt2666lv) Units=km Length=0.0569875 bus1=p6udt2666lv.1.2 bus2=p6udm8649.1.2 switch=n enabled=y phases=2 Linecode=1P_UG_AL_4/0_Sweetbriar_2

New Line.l(r:p6udm8650-p6ulv8140) Units=km Length=0.0168101 bus1=p6udm8650.1.2 bus2=p6ulv8140.1.2 switch=n enabled=y phases=2 Linecode=1P_UG_AL_1/0_Brenau_2

New Line.l(r:p6udm8650-p6udt2666lv) Units=km Length=0.0560914 bus1=p6udt2666lv.1.2 bus2=p6udm8650.1.2 switch=n enabled=y phases=2 Linecode=1P_UG_AL_1/0_Brenau_2

New Line.l(r:p6udm8652-p6ulv8119) Units=km Length=0.0782579 bus1=p6udm8652.1.2 bus2=p6ulv8119.1.2 switch=n enabled=y phases=2 Linecode=1P_UG_AL_1/0_Brenau_2

New Line.l(r:p6udm8652-p6udt2668lv) Units=km Length=0.0253483 bus1=p6udt2668lv.1.2 bus2=p6udm8652.1.2 switch=n enabled=y phases=2 Linecode=1P_UG_AL_1/0_Brenau_2

New Line.l(r:p6udm8653-p6ulv8135) Units=km Length=0.0832723 bus1=p6udm8653.1.2 bus2=p6ulv8135.1.2 switch=n enabled=y phases=2 Linecode=1P_UG_AL_2/0_Converse_2

New Line.l(r:p6udm8653-p6ulv8136) Units=km Length=0.07563730000000002 bus1=p6udm8653.1.2 bus2=p6ulv8136.1.2 switch=n enabled=y phases=2 Linecode=1P_UG_AL_1/0_Brenau_2

New Line.l(r:p6udm8653-p6ulv8137) Units=km Length=0.0675163 bus1=p6udm8653.1.2 bus2=p6ulv8137.1.2 switch=n enabled=y phases=2 Linecode=1P_UG_AL_4/0_Sweetbriar_2

New Line.l(r:p6udm8653-p6udt2668lv) Units=km Length=0.00816177 bus1=p6udt2668lv.1.2 bus2=p6udm8653.1.2 switch=n enabled=y phases=2 Linecode=1P_UG_AL_4/0_Sweetbriar_2

New Line.l(r:p6udt2671lv-p6ulv8122) Units=km Length=0.0466023 bus1=p6udt2671lv.1.2 bus2=p6ulv8122.1.2 switch=n enabled=y phases=2 Linecode=1P_UG_AL_4/0_Sweetbriar_2

New Line.l(r:p6udt2671lv-p6ulv8124) Units=km Length=0.0314087 bus1=p6udt2671lv.1.2 bus2=p6ulv8124.1.2 switch=n enabled=y phases=2 Linecode=1P_UG_AL_1/0_Brenau_2

New Line.l(r:p6udm8663-p6ulv8125) Units=km Length=0.028514000000000005 bus1=p6udm8663.1.2 bus2=p6ulv8125.1.2 switch=n enabled=y phases=2 Linecode=1P_UG_AL_1/0_Brenau_2

New Line.l(r:p6udm8663-p6udt2671lv) Units=km Length=0.0186427 bus1=p6udt2671lv.1.2 bus2=p6udm8663.1.2 switch=n enabled=y phases=2 Linecode=1P_UG_AL_1/0_Brenau_2

New Line.l(r:p6udm8665-p6ulv8155) Units=km Length=0.0272196 bus1=p6udm8665.1.2 bus2=p6ulv8155.1.2 switch=n enabled=y phases=2 Linecode=1P_UG_AL_1/0_Brenau_2

New Line.l(r:p6udm8665-p6ulv8159) Units=km Length=0.00697809 bus1=p6udm8665.1.2 bus2=p6ulv8159.1.2 switch=n enabled=y phases=2 Linecode=1P_UG_AL_1/0_Brenau_2

New Line.l(r:p6udm8666-p6ulv8156) Units=km Length=0.00917724 bus1=p6udm8666.1.2 bus2=p6ulv8156.1.2 switch=n enabled=y phases=2 Linecode=1P_UG_AL_1/0_Brenau_2

New Line.l(r:p6udm8669-p6ulv8161) Units=km Length=0.00607211 bus1=p6udm8669.1.2 bus2=p6ulv8161.1.2 switch=n enabled=y phases=2 Linecode=1P_UG_AL_1/0_Brenau_2

New Line.l(r:p6udm8670-p6ulv21538) Units=km Length=0.0102017 bus1=p6udm8670.1.2 bus2=p6ulv21538.1.2 switch=n enabled=y phases=2 Linecode=1P_UG_AL_1/0_Brenau_2

New Line.l(r:p6udm8669-p6udm8670) Units=km Length=0.00944026 bus1=p6udm8669.1.2 bus2=p6udm8670.1.2 switch=n enabled=y phases=2 Linecode=1P_UG_AL_1/0_Brenau_2

New Line.l(r:p6udm8666-p6udm8669) Units=km Length=0.00944026 bus1=p6udm8666.1.2 bus2=p6udm8669.1.2 switch=n enabled=y phases=2 Linecode=1P_UG_AL_1/0_Brenau_2

New Line.l(r:p6udm8665-p6udm8666) Units=km Length=0.00944026 bus1=p6udm8665.1.2 bus2=p6udm8666.1.2 switch=n enabled=y phases=2 Linecode=1P_UG_AL_1/0_Brenau_2

New Line.l(r:p6udm8665-p6udt2672lv) Units=km Length=0.00945026 bus1=p6udt2672lv.1.2 bus2=p6udm8665.1.2 switch=n enabled=y phases=2 Linecode=1P_UG_AL_4/0_Sweetbriar_2

New Line.l(r:p6udm8667-p6ulv8157) Units=km Length=0.00737328 bus1=p6udm8667.1.2 bus2=p6ulv8157.1.2 switch=n enabled=y phases=2 Linecode=1P_UG_AL_1/0_Brenau_2

New Line.l(r:p6udm8664-p6ulv8127) Units=km Length=0.0173738 bus1=p6udm8664.1.2 bus2=p6ulv8127.1.2 switch=n enabled=y phases=2 Linecode=1P_UG_AL_2/0_Converse_2

New Line.l(r:p6udm8664-p6udm8667) Units=km Length=0.0337261 bus1=p6udm8667.1.2 bus2=p6udm8664.1.2 switch=n enabled=y phases=2 Linecode=1P_UG_AL_2/0_Converse_2

New Line.l(r:p6udm8667-p6udt2672lv) Units=km Length=0.0188805 bus1=p6udt2672lv.1.2 bus2=p6udm8667.1.2 switch=n enabled=y phases=2 Linecode=1P_UG_AL_4/0_Sweetbriar_2

New Line.l(r:p6udm8671-p6ulv8129) Units=km Length=0.01819 bus1=p6udm8671.1.2 bus2=p6ulv8129.1.2 switch=n enabled=y phases=2 Linecode=1P_UG_AL_4/0_Sweetbriar_2

New Line.l(r:p6udm8671-p6ulv8130) Units=km Length=0.010105 bus1=p6udm8671.1.2 bus2=p6ulv8130.1.2 switch=n enabled=y phases=2 Linecode=1P_UG_AL_1/0_Brenau_2

New Line.l(r:p6udm8671-p6udt2673lv) Units=km Length=0.0254504 bus1=p6udt2673lv.1.2 bus2=p6udm8671.1.2 switch=n enabled=y phases=2 Linecode=1P_UG_AL_4/0_Sweetbriar_2

New Line.l(r:p6udm8673-p6ulv8138) Units=km Length=0.00621303 bus1=p6udm8673.1.2 bus2=p6ulv8138.1.2 switch=n enabled=y phases=2 Linecode=1P_UG_AL_1/0_Brenau_2

New Line.l(r:p6udm8674-p6ulv8189) Units=km Length=0.00921764 bus1=p6udm8674.1.2 bus2=p6ulv8189.1.2 switch=n enabled=y phases=2 Linecode=1P_UG_AL_1/0_Brenau_2

New Line.l(r:p6udm8673-p6udm8674) Units=km Length=0.0248249 bus1=p6udm8673.1.2 bus2=p6udm8674.1.2 switch=n enabled=y phases=2 Linecode=1P_UG_AL_1/0_Brenau_2

New Line.l(r:p6udm8673-p6udt2673lv) Units=km Length=0.0551416 bus1=p6udt2673lv.1.2 bus2=p6udm8673.1.2 switch=n enabled=y phases=2 Linecode=1P_UG_AL_1/0_Brenau_2

New Line.l(r:p6udt2674lv-p6ulv8131) Units=km Length=0.0121067 bus1=p6udt2674lv.1.2 bus2=p6ulv8131.1.2 switch=n enabled=y phases=2 Linecode=1P_UG_AL_4/0_Sweetbriar_2

New Line.l(r:p6udt2674lv-p6ulv8132) Units=km Length=0.00398028 bus1=p6udt2674lv.1.2 bus2=p6ulv8132.1.2 switch=n enabled=y phases=2 Linecode=1P_UG_AL_1/0_Brenau_2

New Line.l(r:p6udt2674lv-p6ulv8133) Units=km Length=0.00415293 bus1=p6udt2674lv.1.2 bus2=p6ulv8133.1.2 switch=n enabled=y phases=2 Linecode=1P_UG_AL_4/0_Sweetbriar_2

New Line.l(r:p6udt2674lv-p6ulv8134) Units=km Length=0.01194 bus1=p6udt2674lv.1.2 bus2=p6ulv8134.1.2 switch=n enabled=y phases=2 Linecode=1P_UG_AL_1/0_Brenau_2

New Line.l(r:p6udt2675lv-p6ulv8141) Units=km Length=0.0175763 bus1=p6udt2675lv.1.2 bus2=p6ulv8141.1.2 switch=n enabled=y phases=2 Linecode=1P_UG_AL_1/0_Brenau_2

New Line.l(r:p6udt2677lv-p6ulv8144) Units=km Length=0.00649708 bus1=p6udt2677lv.1.2 bus2=p6ulv8144.1.2 switch=n enabled=y phases=2 Linecode=1P_UG_AL_1/0_Brenau_2

New Line.l(r:p6udm8681-p6ulv8143) Units=km Length=0.0207381 bus1=p6udm8681.1.2 bus2=p6ulv8143.1.2 switch=n enabled=y phases=2 Linecode=1P_UG_AL_1/0_Brenau_2

New Line.l(r:p6udm8681-p6udt2677lv) Units=km Length=0.00795767 bus1=p6udt2677lv.1.2 bus2=p6udm8681.1.2 switch=n enabled=y phases=2 Linecode=1P_UG_AL_1/0_Brenau_2

New Line.l(r:p6udt2678lv-p6ulv8146) Units=km Length=0.0158757 bus1=p6udt2678lv.1.2 bus2=p6ulv8146.1.2 switch=n enabled=y phases=2 Linecode=1P_UG_AL_1/0_Brenau_2

New Line.l(r:p6udm8683-p6ulv8145) Units=km Length=0.0137553 bus1=p6udm8683.1.2 bus2=p6ulv8145.1.2 switch=n enabled=y phases=2 Linecode=1P_UG_AL_1/0_Brenau_2

New Line.l(r:p6udm8683-p6udt2678lv) Units=km Length=0.047419600000000006 bus1=p6udt2678lv.1.2 bus2=p6udm8683.1.2 switch=n enabled=y phases=2 Linecode=1P_UG_AL_1/0_Brenau_2

New Line.l(r:p6udm8685-p6ulv8147) Units=km Length=0.0130143 bus1=p6udm8685.1.2 bus2=p6ulv8147.1.2 switch=n enabled=y phases=2 Linecode=1P_UG_AL_1/0_Brenau_2

New Line.l(r:p6udm8685-p6udt2678lv) Units=km Length=0.0539789 bus1=p6udt2678lv.1.2 bus2=p6udm8685.1.2 switch=n enabled=y phases=2 Linecode=1P_UG_AL_1/0_Brenau_2

New Line.l(r:p6udm8686-p6ulv8148) Units=km Length=0.014584200000000002 bus1=p6udm8686.1.2 bus2=p6ulv8148.1.2 switch=n enabled=y phases=2 Linecode=1P_UG_AL_1/0_Brenau_2

New Line.l(r:p6udm8686-p6udt2679lv) Units=km Length=0.0153665 bus1=p6udt2679lv.1.2 bus2=p6udm8686.1.2 switch=n enabled=y phases=2 Linecode=1P_UG_AL_1/0_Brenau_2

New Line.l(r:p6udm8687-p6ulv31690) Units=km Length=0.014784100000000001 bus1=p6udm8687.1.2 bus2=p6ulv31690.1.2 switch=n enabled=y phases=2 Linecode=1P_UG_AL_1/0_Brenau_2

New Line.l(r:p6udm8687-p6ulv31967) Units=km Length=0.00801809 bus1=p6udm8687.1.2 bus2=p6ulv31967.1.2 switch=n enabled=y phases=2 Linecode=1P_UG_AL_1/0_Brenau_2

New Line.l(r:p6udm8688-p6ulv31691) Units=km Length=0.018400700000000002 bus1=p6udm8688.1.2 bus2=p6ulv31691.1.2 switch=n enabled=y phases=2 Linecode=1P_UG_AL_1/0_Brenau_2

New Line.l(r:p6udm8687-p6udm8688) Units=km Length=0.0077056 bus1=p6udm8687.1.2 bus2=p6udm8688.1.2 switch=n enabled=y phases=2 Linecode=1P_UG_AL_1/0_Brenau_2

New Line.l(r:p6udm8687-p6udt2679lv) Units=km Length=0.0077056 bus1=p6udt2679lv.1.2 bus2=p6udm8687.1.2 switch=n enabled=y phases=2 Linecode=1P_UG_AL_2/0_Converse_2

New Line.l(r:p6udm8690-p6ulv8149) Units=km Length=0.014724 bus1=p6udm8690.1.2 bus2=p6ulv8149.1.2 switch=n enabled=y phases=2 Linecode=1P_UG_AL_1/0_Brenau_2

New Line.l(r:p6udm8691-p6ulv8150) Units=km Length=0.00788632 bus1=p6udm8691.1.2 bus2=p6ulv8150.1.2 switch=n enabled=y phases=2 Linecode=1P_UG_AL_1/0_Brenau_2

New Line.l(r:p6udm8690-p6udm8691) Units=km Length=0.03300700000000001 bus1=p6udm8690.1.2 bus2=p6udm8691.1.2 switch=n enabled=y phases=2 Linecode=1P_UG_AL_1/0_Brenau_2

New Line.l(r:p6udm8693-p6ulv8169) Units=km Length=0.0147816 bus1=p6udm8693.1.2 bus2=p6ulv8169.1.2 switch=n enabled=y phases=2 Linecode=1P_UG_AL_1/0_Brenau_2

New Line.l(r:p6udm8690-p6udm8693) Units=km Length=0.0750846 bus1=p6udm8690.1.2 bus2=p6udm8693.1.2 switch=n enabled=y phases=2 Linecode=1P_UG_AL_1/0_Brenau_2

New Line.l(r:p6udm8690-p6udt2680lv) Units=km Length=0.0167888 bus1=p6udt2680lv.1.2 bus2=p6udm8690.1.2 switch=n enabled=y phases=2 Linecode=1P_UG_AL_1/0_Brenau_2

New Line.l(r:p6udm8695-p6ulv31711) Units=km Length=0.0205855 bus1=p6udm8695.1.2 bus2=p6ulv31711.1.2 switch=n enabled=y phases=2 Linecode=1P_UG_AL_1/0_Brenau_2

New Line.l(r:p6udm8692-p6ulv8153) Units=km Length=0.0096009 bus1=p6udm8692.1.2 bus2=p6ulv8153.1.2 switch=n enabled=y phases=2 Linecode=1P_UG_AL_1/0_Brenau_2

New Line.l(r:p6udm8694-p6ulv31710) Units=km Length=0.0194712 bus1=p6udm8694.1.2 bus2=p6ulv31710.1.2 switch=n enabled=y phases=2 Linecode=1P_UG_AL_1/0_Brenau_2

New Line.l(r:p6udm8692-p6udm8694) Units=km Length=0.0343521 bus1=p6udm8692.1.2 bus2=p6udm8694.1.2 switch=n enabled=y phases=2 Linecode=1P_UG_AL_1/0_Brenau_2

New Line.l(r:p6udm8692-p6udm8695) Units=km Length=0.00900169 bus1=p6udm8695.1.2 bus2=p6udm8692.1.2 switch=n enabled=y phases=2 Linecode=1P_UG_AL_1/0_Brenau_2

New Line.l(r:p6udm8695-p6udt2680lv) Units=km Length=0.00838976 bus1=p6udt2680lv.1.2 bus2=p6udm8695.1.2 switch=n enabled=y phases=2 Linecode=1P_UG_AL_1/0_Brenau_2

New Line.l(r:p6udt2681lv-p6ulv8152) Units=km Length=0.013369900000000002 bus1=p6udt2681lv.1.2 bus2=p6ulv8152.1.2 switch=n enabled=y phases=2 Linecode=1P_UG_AL_1/0_Brenau_2

New Line.l(r:p6udt2681lv-p6ulv8168) Units=km Length=0.0179417 bus1=p6udt2681lv.1.2 bus2=p6ulv8168.1.2 switch=n enabled=y phases=2 Linecode=1P_UG_AL_1/0_Brenau_2

New Line.l(r:p6udm8698-p6ulv8154) Units=km Length=0.012732000000000002 bus1=p6udm8698.1.2 bus2=p6ulv8154.1.2 switch=n enabled=y phases=2 Linecode=1P_UG_AL_1/0_Brenau_2

New Line.l(r:p6udm8696-p6ulv8151) Units=km Length=0.009556110000000001 bus1=p6udm8696.1.2 bus2=p6ulv8151.1.2 switch=n enabled=y phases=2 Linecode=1P_UG_AL_1/0_Brenau_2

New Line.l(r:p6udm8696-p6udm8698) Units=km Length=0.0166194 bus1=p6udm8698.1.2 bus2=p6udm8696.1.2 switch=n enabled=y phases=2 Linecode=1P_UG_AL_1/0_Brenau_2

New Line.l(r:p6udm8698-p6udt2681lv) Units=km Length=0.00763001 bus1=p6udt2681lv.1.2 bus2=p6udm8698.1.2 switch=n enabled=y phases=2 Linecode=1P_UG_AL_1/0_Brenau_2

New Line.l(r:p6udm8699-p6ulv8167) Units=km Length=0.00662535 bus1=p6udm8699.1.2 bus2=p6ulv8167.1.2 switch=n enabled=y phases=2 Linecode=1P_UG_AL_1/0_Brenau_2

New Line.l(r:p6udm8699-p6udt2681lv) Units=km Length=0.049825400000000006 bus1=p6udt2681lv.1.2 bus2=p6udm8699.1.2 switch=n enabled=y phases=2 Linecode=1P_UG_AL_1/0_Brenau_2

New Line.l(r:p6udm8702-p6ulv8163) Units=km Length=0.015069700000000002 bus1=p6udm8702.1.2 bus2=p6ulv8163.1.2 switch=n enabled=y phases=2 Linecode=1P_UG_AL_1/0_Brenau_2

New Line.l(r:p6udm8702-p6ulv8164) Units=km Length=0.011768200000000001 bus1=p6udm8702.1.2 bus2=p6ulv8164.1.2 switch=n enabled=y phases=2 Linecode=1P_UG_AL_1/0_Brenau_2

New Line.l(r:p6udm8701-p6ulv8162) Units=km Length=0.0202742 bus1=p6udm8701.1.2 bus2=p6ulv8162.1.2 switch=n enabled=y phases=2 Linecode=1P_UG_AL_1/0_Brenau_2

New Line.l(r:p6udm8701-p6udm8702) Units=km Length=0.00944026 bus1=p6udm8702.1.2 bus2=p6udm8701.1.2 switch=n enabled=y phases=2 Linecode=1P_UG_AL_1/0_Brenau_2

New Line.l(r:p6udm8702-p6udt2682lv) Units=km Length=0.00944026 bus1=p6udt2682lv.1.2 bus2=p6udm8702.1.2 switch=n enabled=y phases=2 Linecode=1P_UG_AL_1/0_Brenau_2

New Line.l(r:p6udm8706-p6ulv13343) Units=km Length=0.0224158 bus1=p6udm8706.1.2 bus2=p6ulv13343.1.2 switch=n enabled=y phases=2 Linecode=1P_UG_AL_1/0_Brenau_2

New Line.l(r:p6udm8705-p6ulv8181) Units=km Length=0.0130399 bus1=p6udm8705.1.2 bus2=p6ulv8181.1.2 switch=n enabled=y phases=2 Linecode=1P_UG_AL_1/0_Brenau_2

New Line.l(r:p6udm8704-p6ulv8179) Units=km Length=0.00463303 bus1=p6udm8704.1.2 bus2=p6ulv8179.1.2 switch=n enabled=y phases=2 Linecode=1P_UG_AL_1/0_Brenau_2

New Line.l(r:p6udm8704-p6udm8705) Units=km Length=0.00669362 bus1=p6udm8705.1.2 bus2=p6udm8704.1.2 switch=n enabled=y phases=2 Linecode=1P_UG_AL_1/0_Brenau_2

New Line.l(r:p6udm8705-p6udm8706) Units=km Length=0.011883800000000002 bus1=p6udm8706.1.2 bus2=p6udm8705.1.2 switch=n enabled=y phases=2 Linecode=1P_UG_AL_1/0_Brenau_2

New Line.l(r:p6udm8706-p6udt2682lv) Units=km Length=0.00944026 bus1=p6udt2682lv.1.2 bus2=p6udm8706.1.2 switch=n enabled=y phases=2 Linecode=1P_UG_AL_1/0_Brenau_2

New Line.l(r:p6udm8708-p6ulv8166) Units=km Length=0.00614296 bus1=p6udm8708.1.2 bus2=p6ulv8166.1.2 switch=n enabled=y phases=2 Linecode=1P_UG_AL_1/0_Brenau_2

New Line.l(r:p6udm8709-p6ulv8171) Units=km Length=0.0077601 bus1=p6udm8709.1.2 bus2=p6ulv8171.1.2 switch=n enabled=y phases=2 Linecode=1P_UG_AL_4/0_Sweetbriar_2

New Line.l(r:p6udm8708-p6udm8709) Units=km Length=0.0435854 bus1=p6udm8708.1.2 bus2=p6udm8709.1.2 switch=n enabled=y phases=2 Linecode=1P_UG_AL_4/0_Sweetbriar_2

New Line.l(r:p6udm8708-p6udt2683lv) Units=km Length=0.00705517 bus1=p6udt2683lv.1.2 bus2=p6udm8708.1.2 switch=n enabled=y phases=2 Linecode=1P_UG_AL_4/0_Sweetbriar_2

New Line.l(r:p6udm8710-p6ulv8178) Units=km Length=0.00627288 bus1=p6udm8710.1.2 bus2=p6ulv8178.1.2 switch=n enabled=y phases=2 Linecode=1P_UG_AL_1/0_Brenau_2

New Line.l(r:p6udm8707-p6ulv8165) Units=km Length=0.00604649 bus1=p6udm8707.1.2 bus2=p6ulv8165.1.2 switch=n enabled=y phases=2 Linecode=1P_UG_AL_1/0_Brenau_2

New Line.l(r:p6udm8711-p6ulv8180) Units=km Length=0.00807961 bus1=p6udm8711.1.2 bus2=p6ulv8180.1.2 switch=n enabled=y phases=2 Linecode=1P_UG_AL_1/0_Brenau_2

New Line.l(r:p6udm8707-p6udm8711) Units=km Length=0.07336800000000002 bus1=p6udm8707.1.2 bus2=p6udm8711.1.2 switch=n enabled=y phases=2 Linecode=1P_UG_AL_1/0_Brenau_2

New Line.l(r:p6udm8707-p6udm8710) Units=km Length=0.0117206 bus1=p6udm8710.1.2 bus2=p6udm8707.1.2 switch=n enabled=y phases=2 Linecode=1P_UG_AL_1/0_Brenau_2

New Line.l(r:p6udm8710-p6udt2683lv) Units=km Length=0.00705517 bus1=p6udt2683lv.1.2 bus2=p6udm8710.1.2 switch=n enabled=y phases=2 Linecode=1P_UG_AL_1/0_Brenau_2

New Line.l(r:p6udm8712-p6ulv8170) Units=km Length=0.0122435 bus1=p6udm8712.1.2 bus2=p6ulv8170.1.2 switch=n enabled=y phases=2 Linecode=1P_UG_AL_1/0_Brenau_2

New Line.l(r:p6udm8713-p6ulv28622) Units=km Length=0.0175342 bus1=p6udm8713.1.2 bus2=p6ulv28622.1.2 switch=n enabled=y phases=2 Linecode=1P_UG_AL_1/0_Brenau_2

New Line.l(r:p6udm8712-p6udm8713) Units=km Length=0.00789066 bus1=p6udm8712.1.2 bus2=p6udm8713.1.2 switch=n enabled=y phases=2 Linecode=1P_UG_AL_1/0_Brenau_2

New Line.l(r:p6udm8712-p6udt2684lv) Units=km Length=0.0210934 bus1=p6udt2684lv.1.2 bus2=p6udm8712.1.2 switch=n enabled=y phases=2 Linecode=1P_UG_AL_1/0_Brenau_2

New Line.l(r:p6udm8717-p6ulv31732) Units=km Length=0.00474894 bus1=p6udm8717.1.2 bus2=p6ulv31732.1.2 switch=n enabled=y phases=2 Linecode=1P_UG_AL_1/0_Brenau_2

New Line.l(r:p6udm8716-p6ulv31727) Units=km Length=0.0113743 bus1=p6udm8716.1.2 bus2=p6ulv31727.1.2 switch=n enabled=y phases=2 Linecode=1P_UG_AL_1/0_Brenau_2

New Line.l(r:p6udm8714-p6ulv31725) Units=km Length=0.0173383 bus1=p6udm8714.1.2 bus2=p6ulv31725.1.2 switch=n enabled=y phases=2 Linecode=1P_UG_AL_1/0_Brenau_2

New Line.l(r:p6udm8715-p6ulv31726) Units=km Length=0.0126007 bus1=p6udm8715.1.2 bus2=p6ulv31726.1.2 switch=n enabled=y phases=2 Linecode=1P_UG_AL_1/0_Brenau_2

New Line.l(r:p6udm8714-p6udm8715) Units=km Length=0.008542830000000001 bus1=p6udm8714.1.2 bus2=p6udm8715.1.2 switch=n enabled=y phases=2 Linecode=1P_UG_AL_1/0_Brenau_2

New Line.l(r:p6udm8714-p6udm8716) Units=km Length=0.0168823 bus1=p6udm8716.1.2 bus2=p6udm8714.1.2 switch=n enabled=y phases=2 Linecode=1P_UG_AL_1/0_Brenau_2

New Line.l(r:p6udm8716-p6udm8717) Units=km Length=0.0874262 bus1=p6udm8717.1.2 bus2=p6udm8716.1.2 switch=n enabled=y phases=2 Linecode=1P_UG_AL_1/0_Brenau_2

New Line.l(r:p6udm8718-p6ulv31733) Units=km Length=0.011172400000000002 bus1=p6udm8718.1.2 bus2=p6ulv31733.1.2 switch=n enabled=y phases=2 Linecode=1P_UG_AL_1/0_Brenau_2

New Line.l(r:p6udm8717-p6udm8718) Units=km Length=0.0702302 bus1=p6udm8717.1.2 bus2=p6udm8718.1.2 switch=n enabled=y phases=2 Linecode=1P_UG_AL_1/0_Brenau_2

New Line.l(r:p6udm8717-p6udt2684lv) Units=km Length=0.014983000000000002 bus1=p6udt2684lv.1.2 bus2=p6udm8717.1.2 switch=n enabled=y phases=2 Linecode=1P_UG_AL_1/0_Brenau_2

New Line.l(r:p6udt2685lv-p6ulv13334) Units=km Length=0.0153654 bus1=p6udt2685lv.1.2 bus2=p6ulv13334.1.2 switch=n enabled=y phases=2 Linecode=1P_UG_AL_1/0_Brenau_2

New Line.l(r:p6udm8719-p6ulv8172) Units=km Length=0.0253198 bus1=p6udm8719.1.2 bus2=p6ulv8172.1.2 switch=n enabled=y phases=2 Linecode=1P_UG_AL_1/0_Brenau_2

New Line.l(r:p6udm8723-p6ulv31723) Units=km Length=0.0171735 bus1=p6udm8723.1.2 bus2=p6ulv31723.1.2 switch=n enabled=y phases=2 Linecode=1P_UG_AL_1/0_Brenau_2

New Line.l(r:p6udm8724-p6ulv31724) Units=km Length=0.0240699 bus1=p6udm8724.1.2 bus2=p6ulv31724.1.2 switch=n enabled=y phases=2 Linecode=1P_UG_AL_1/0_Brenau_2

New Line.l(r:p6udm8723-p6udm8724) Units=km Length=0.00595628 bus1=p6udm8723.1.2 bus2=p6udm8724.1.2 switch=n enabled=y phases=2 Linecode=1P_UG_AL_1/0_Brenau_2

New Line.l(r:p6udm8719-p6udm8723) Units=km Length=0.00694421 bus1=p6udm8719.1.2 bus2=p6udm8723.1.2 switch=n enabled=y phases=2 Linecode=1P_UG_AL_1/0_Brenau_2

New Line.l(r:p6udm8719-p6udt2685lv) Units=km Length=0.00694421 bus1=p6udt2685lv.1.2 bus2=p6udm8719.1.2 switch=n enabled=y phases=2 Linecode=1P_UG_AL_2/0_Converse_2

New Line.l(r:p6udm8720-p6ulv8175) Units=km Length=0.00759032 bus1=p6udm8720.1.2 bus2=p6ulv8175.1.2 switch=n enabled=y phases=2 Linecode=1P_UG_AL_1/0_Brenau_2

New Line.l(r:p6udm8722-p6ulv13335) Units=km Length=0.0088958 bus1=p6udm8722.1.2 bus2=p6ulv13335.1.2 switch=n enabled=y phases=2 Linecode=1P_UG_AL_1/0_Brenau_2

New Line.l(r:p6udm8720-p6udm8722) Units=km Length=0.00908925 bus1=p6udm8720.1.2 bus2=p6udm8722.1.2 switch=n enabled=y phases=2 Linecode=1P_UG_AL_1/0_Brenau_2

New Line.l(r:p6udm8720-p6udt2685lv) Units=km Length=0.00907926 bus1=p6udt2685lv.1.2 bus2=p6udm8720.1.2 switch=n enabled=y phases=2 Linecode=1P_UG_AL_1/0_Brenau_2

New Line.l(r:p6udt2686lv-p6ulv8173) Units=km Length=0.018383 bus1=p6udt2686lv.1.2 bus2=p6ulv8173.1.2 switch=n enabled=y phases=2 Linecode=1P_UG_AL_1/0_Brenau_2

New Line.l(r:p6udt2686lv-p6ulv8174) Units=km Length=0.006807320000000001 bus1=p6udt2686lv.1.2 bus2=p6ulv8174.1.2 switch=n enabled=y phases=2 Linecode=1P_UG_AL_1/0_Brenau_2

New Line.l(r:p6udm8727-p6ulv8176) Units=km Length=0.00573127 bus1=p6udm8727.1.2 bus2=p6ulv8176.1.2 switch=n enabled=y phases=2 Linecode=1P_UG_AL_1/0_Brenau_2

New Line.l(r:p6udm8727-p6udt2686lv) Units=km Length=0.0160747 bus1=p6udt2686lv.1.2 bus2=p6udm8727.1.2 switch=n enabled=y phases=2 Linecode=1P_UG_AL_1/0_Brenau_2

New Line.l(r:p6udm8728-p6ulv8177) Units=km Length=0.0252978 bus1=p6udm8728.1.2 bus2=p6ulv8177.1.2 switch=n enabled=y phases=2 Linecode=1P_UG_AL_1/0_Brenau_2

New Line.l(r:p6udm8728-p6udt2686lv) Units=km Length=0.00854115 bus1=p6udt2686lv.1.2 bus2=p6udm8728.1.2 switch=n enabled=y phases=2 Linecode=1P_UG_AL_1/0_Brenau_2

New Line.l(r:p6udt2687lv-p6ulv13333) Units=km Length=0.00606667 bus1=p6udt2687lv.1.2 bus2=p6ulv13333.1.2 switch=n enabled=y phases=2 Linecode=1P_UG_AL_1/0_Brenau_2

New Line.l(r:p6udm8730-p6ulv8183) Units=km Length=0.0139348 bus1=p6udm8730.1.2 bus2=p6ulv8183.1.2 switch=n enabled=y phases=2 Linecode=1P_UG_AL_1/0_Brenau_2

New Line.l(r:p6udm8730-p6ulv13332) Units=km Length=0.00629051 bus1=p6udm8730.1.2 bus2=p6ulv13332.1.2 switch=n enabled=y phases=2 Linecode=1P_UG_AL_1/0_Brenau_2

New Line.l(r:p6udm8729-p6ulv8182) Units=km Length=0.0179995 bus1=p6udm8729.1.2 bus2=p6ulv8182.1.2 switch=n enabled=y phases=2 Linecode=1P_UG_AL_1/0_Brenau_2

New Line.l(r:p6udm8729-p6udm8730) Units=km Length=0.0274195 bus1=p6udm8730.1.2 bus2=p6udm8729.1.2 switch=n enabled=y phases=2 Linecode=1P_UG_AL_1/0_Brenau_2

New Line.l(r:p6udm8730-p6udt2687lv) Units=km Length=0.0168405 bus1=p6udt2687lv.1.2 bus2=p6udm8730.1.2 switch=n enabled=y phases=2 Linecode=1P_UG_AL_1/0_Brenau_2

New Line.l(r:p6udm8732-p6ulv8185) Units=km Length=0.00871379 bus1=p6udm8732.1.2 bus2=p6ulv8185.1.2 switch=n enabled=y phases=2 Linecode=1P_UG_AL_1/0_Brenau_2

New Line.l(r:p6udm8732-p6ulv13345) Units=km Length=0.0201333 bus1=p6udm8732.1.2 bus2=p6ulv13345.1.2 switch=n enabled=y phases=2 Linecode=1P_UG_AL_1/0_Brenau_2

New Line.l(r:p6udm8731-p6ulv8184) Units=km Length=0.0226683 bus1=p6udm8731.1.2 bus2=p6ulv8184.1.2 switch=n enabled=y phases=2 Linecode=1P_UG_AL_1/0_Brenau_2

New Line.l(r:p6udm8739-p6ulv28621) Units=km Length=0.006766510000000001 bus1=p6udm8739.1.2 bus2=p6ulv28621.1.2 switch=n enabled=y phases=2 Linecode=1P_UG_AL_1/0_Brenau_2

New Line.l(r:p6udm8736-p6ulv13344) Units=km Length=0.00893692 bus1=p6udm8736.1.2 bus2=p6ulv13344.1.2 switch=n enabled=y phases=2 Linecode=1P_UG_AL_1/0_Brenau_2

New Line.l(r:p6udm8736-p6udm8739) Units=km Length=0.0088502 bus1=p6udm8739.1.2 bus2=p6udm8736.1.2 switch=n enabled=y phases=2 Linecode=1P_UG_AL_1/0_Brenau_2

New Line.l(r:p6udm8731-p6udm8739) Units=km Length=0.0088502 bus1=p6udm8731.1.2 bus2=p6udm8739.1.2 switch=n enabled=y phases=2 Linecode=1P_UG_AL_1/0_Brenau_2

New Line.l(r:p6udm8731-p6udm8732) Units=km Length=0.0088502 bus1=p6udm8732.1.2 bus2=p6udm8731.1.2 switch=n enabled=y phases=2 Linecode=1P_UG_AL_1/0_Brenau_2

New Line.l(r:p6udm8732-p6udt2687lv) Units=km Length=0.0258709 bus1=p6udt2687lv.1.2 bus2=p6udm8732.1.2 switch=n enabled=y phases=2 Linecode=1P_UG_AL_1/0_Brenau_2

New Line.l(r:p6udm8738-p6ulv13353) Units=km Length=0.00458519 bus1=p6udm8738.1.2 bus2=p6ulv13353.1.2 switch=n enabled=y phases=2 Linecode=1P_UG_AL_1/0_Brenau_2

New Line.l(r:p6udm8733-p6ulv13331) Units=km Length=0.0139968 bus1=p6udm8733.1.2 bus2=p6ulv13331.1.2 switch=n enabled=y phases=2 Linecode=1P_UG_AL_1/0_Brenau_2

New Line.l(r:p6udm8733-p6udm8738) Units=km Length=0.0174434 bus1=p6udm8738.1.2 bus2=p6udm8733.1.2 switch=n enabled=y phases=2 Linecode=1P_UG_AL_1/0_Brenau_2

New Line.l(r:p6udm8738-p6udt2687lv) Units=km Length=0.0416083 bus1=p6udt2687lv.1.2 bus2=p6udm8738.1.2 switch=n enabled=y phases=2 Linecode=1P_UG_AL_1/0_Brenau_2

New Line.l(r:p6udt2688lv-p6ulv13317) Units=km Length=0.0112021 bus1=p6udt2688lv.1.2 bus2=p6ulv13317.1.2 switch=n enabled=y phases=2 Linecode=1P_UG_AL_1/0_Brenau_2

New Line.l(r:p6udm8741-p6ulv8187) Units=km Length=0.0158715 bus1=p6udm8741.1.2 bus2=p6ulv8187.1.2 switch=n enabled=y phases=2 Linecode=1P_UG_AL_1/0_Brenau_2

New Line.l(r:p6udm8741-p6ulv8193) Units=km Length=0.00849681 bus1=p6udm8741.1.2 bus2=p6ulv8193.1.2 switch=n enabled=y phases=2 Linecode=1P_UG_AL_1/0_Brenau_2

New Line.l(r:p6udm8742-p6ulv8188) Units=km Length=0.0139043 bus1=p6udm8742.1.2 bus2=p6ulv8188.1.2 switch=n enabled=y phases=2 Linecode=1P_UG_AL_1/0_Brenau_2

New Line.l(r:p6udm8742-p6ulv8190) Units=km Length=0.00835809 bus1=p6udm8742.1.2 bus2=p6ulv8190.1.2 switch=n enabled=y phases=2 Linecode=1P_UG_AL_1/0_Brenau_2

New Line.l(r:p6udm8741-p6udm8742) Units=km Length=0.0171909 bus1=p6udm8741.1.2 bus2=p6udm8742.1.2 switch=n enabled=y phases=2 Linecode=1P_UG_AL_1/0_Brenau_2

New Line.l(r:p6udm8741-p6udt2688lv) Units=km Length=0.0093262 bus1=p6udt2688lv.1.2 bus2=p6udm8741.1.2 switch=n enabled=y phases=2 Linecode=1P_UG_AL_2/0_Converse_2

New Line.l(r:p6udm8746-p6ulv13318) Units=km Length=0.00946734 bus1=p6udm8746.1.2 bus2=p6ulv13318.1.2 switch=n enabled=y phases=2 Linecode=1P_UG_AL_1/0_Brenau_2

New Line.l(r:p6udm8740-p6ulv8186) Units=km Length=0.0147717 bus1=p6udm8740.1.2 bus2=p6ulv8186.1.2 switch=n enabled=y phases=2 Linecode=1P_UG_AL_1/0_Brenau_2

New Line.l(r:p6udm8740-p6ulv13319) Units=km Length=0.0102051 bus1=p6udm8740.1.2 bus2=p6ulv13319.1.2 switch=n enabled=y phases=2 Linecode=1P_UG_AL_1/0_Brenau_2

New Line.l(r:p6udm8740-p6udm8746) Units=km Length=0.00943034 bus1=p6udm8746.1.2 bus2=p6udm8740.1.2 switch=n enabled=y phases=2 Linecode=1P_UG_AL_1/0_Brenau_2

New Line.l(r:p6udm8746-p6udt2688lv) Units=km Length=0.0093262 bus1=p6udt2688lv.1.2 bus2=p6udm8746.1.2 switch=n enabled=y phases=2 Linecode=1P_UG_AL_1/0_Brenau_2

New Line.l(r:p6udm8748-p6ulv8191) Units=km Length=0.0136418 bus1=p6udm8748.1.2 bus2=p6ulv8191.1.2 switch=n enabled=y phases=2 Linecode=1P_UG_AL_1/0_Brenau_2

New Line.l(r:p6udm8749-p6ulv8197) Units=km Length=0.009366880000000001 bus1=p6udm8749.1.2 bus2=p6ulv8197.1.2 switch=n enabled=y phases=2 Linecode=1P_UG_AL_1/0_Brenau_2

New Line.l(r:p6udm8748-p6udm8749) Units=km Length=0.00796006 bus1=p6udm8748.1.2 bus2=p6udm8749.1.2 switch=n enabled=y phases=2 Linecode=1P_UG_AL_1/0_Brenau_2

New Line.l(r:p6udm8748-p6udt2689lv) Units=km Length=0.015251000000000002 bus1=p6udt2689lv.1.2 bus2=p6udm8748.1.2 switch=n enabled=y phases=2 Linecode=1P_UG_AL_1/0_Brenau_2

New Line.l(r:p6udm8750-p6ulv21537) Units=km Length=0.0100692 bus1=p6udm8750.1.2 bus2=p6ulv21537.1.2 switch=n enabled=y phases=2 Linecode=1P_UG_AL_1/0_Brenau_2

New Line.l(r:p6udm8750-p6udt2689lv) Units=km Length=0.026732300000000004 bus1=p6udt2689lv.1.2 bus2=p6udm8750.1.2 switch=n enabled=y phases=2 Linecode=1P_UG_AL_1/0_Brenau_2

New Line.l(r:p6udm8753-p6ulv8196) Units=km Length=0.0144184 bus1=p6udm8753.1.2 bus2=p6ulv8196.1.2 switch=n enabled=y phases=2 Linecode=1P_UG_AL_1/0_Brenau_2

New Line.l(r:p6udm8753-p6ulv13321) Units=km Length=0.00804627 bus1=p6udm8753.1.2 bus2=p6ulv13321.1.2 switch=n enabled=y phases=2 Linecode=1P_UG_AL_1/0_Brenau_2

New Line.l(r:p6udm8752-p6ulv8195) Units=km Length=0.012679900000000001 bus1=p6udm8752.1.2 bus2=p6ulv8195.1.2 switch=n enabled=y phases=2 Linecode=1P_UG_AL_1/0_Brenau_2

New Line.l(r:p6udm8751-p6ulv8194) Units=km Length=0.0239642 bus1=p6udm8751.1.2 bus2=p6ulv8194.1.2 switch=n enabled=y phases=2 Linecode=1P_UG_AL_1/0_Brenau_2

New Line.l(r:p6udm8751-p6udm8752) Units=km Length=0.00844021 bus1=p6udm8752.1.2 bus2=p6udm8751.1.2 switch=n enabled=y phases=2 Linecode=1P_UG_AL_1/0_Brenau_2

New Line.l(r:p6udm8752-p6udm8753) Units=km Length=0.00850944 bus1=p6udm8753.1.2 bus2=p6udm8752.1.2 switch=n enabled=y phases=2 Linecode=1P_UG_AL_1/0_Brenau_2

New Line.l(r:p6udm8753-p6udt2690lv) Units=km Length=0.009640630000000002 bus1=p6udt2690lv.1.2 bus2=p6udm8753.1.2 switch=n enabled=y phases=2 Linecode=1P_UG_AL_1/0_Brenau_2

New Line.l(r:p6udm8754-p6ulv13320) Units=km Length=0.014389100000000002 bus1=p6udm8754.1.2 bus2=p6ulv13320.1.2 switch=n enabled=y phases=2 Linecode=1P_UG_AL_1/0_Brenau_2

New Line.l(r:p6udm8756-p6ulv13330) Units=km Length=0.00827421 bus1=p6udm8756.1.2 bus2=p6ulv13330.1.2 switch=n enabled=y phases=2 Linecode=1P_UG_AL_1/0_Brenau_2

New Line.l(r:p6udm8754-p6udm8756) Units=km Length=0.0578432 bus1=p6udm8754.1.2 bus2=p6udm8756.1.2 switch=n enabled=y phases=2 Linecode=1P_UG_AL_1/0_Brenau_2
