New Load.load_p6ulv6288_1 conn=wye bus1=p6ulv6288.1 kV=0.12 Vminpu=0.8 Vmaxpu=1.2 model=1 kW=0.415004 kvar=0.0849193937672367 Phases=1

New Load.load_p6ulv6288_2 conn=wye bus1=p6ulv6288.2 kV=0.12 Vminpu=0.8 Vmaxpu=1.2 model=1 kW=0.415004 kvar=0.0849193937672367 Phases=1

New Load.load_p6ulv7111_1 conn=wye bus1=p6ulv7111.1 kV=0.12 Vminpu=0.8 Vmaxpu=1.2 model=1 kW=6.585050000000001 kvar=1.3337019550143763 Phases=1

New Load.load_p6ulv7111_2 conn=wye bus1=p6ulv7111.2 kV=0.12 Vminpu=0.8 Vmaxpu=1.2 model=1 kW=6.585050000000001 kvar=1.3337019550143763 Phases=1

New Load.load_p6ulv7112_1 conn=wye bus1=p6ulv7112.1 kV=0.12 Vminpu=0.8 Vmaxpu=1.2 model=1 kW=2.77003 kvar=0.5653708099601131 Phases=1

New Load.load_p6ulv7112_2 conn=wye bus1=p6ulv7112.2 kV=0.12 Vminpu=0.8 Vmaxpu=1.2 model=1 kW=2.77003 kvar=0.5653708099601131 Phases=1

New Load.load_p6ulv7113_1 conn=wye bus1=p6ulv7113.1 kV=0.12 Vminpu=0.8 Vmaxpu=1.2 model=1 kW=6.31505 kvar=1.2790175520327918 Phases=1

New Load.load_p6ulv7113_2 conn=wye bus1=p6ulv7113.2 kV=0.12 Vminpu=0.8 Vmaxpu=1.2 model=1 kW=6.31505 kvar=1.2790175520327918 Phases=1

New Load.load_p6ulv7114 conn=wye bus1=p6ulv7114.1.2.3 kV=0.48 Vminpu=0.8 Vmaxpu=1.2 model=1 kW=74.4307 kvar=15.113798252051383 Phases=3

New Load.load_p6ulv8115 conn=wye bus1=p6ulv8115.1.2.3 kV=0.48 Vminpu=0.8 Vmaxpu=1.2 model=1 kW=102.43100000000001 kvar=20.799501667401696 Phases=3

New Load.load_p6ulv8116 conn=wye bus1=p6ulv8116.1.2.3 kV=0.48 Vminpu=0.8 Vmaxpu=1.2 model=1 kW=86.7309 kvar=17.611460389581765 Phases=3

New Load.load_p6ulv8117_1 conn=wye bus1=p6ulv8117.1 kV=0.12 Vminpu=0.8 Vmaxpu=1.2 model=1 kW=8.8751 kvar=1.8021659189928516 Phases=1

New Load.load_p6ulv8117_2 conn=wye bus1=p6ulv8117.2 kV=0.12 Vminpu=0.8 Vmaxpu=1.2 model=1 kW=8.8751 kvar=1.8021659189928516 Phases=1

New Load.load_p6ulv8118 conn=wye bus1=p6ulv8118.1.2.3 kV=0.48 Vminpu=0.8 Vmaxpu=1.2 model=1 kW=77.20079999999999 kvar=15.676291047873638 Phases=3

New Load.load_p6ulv8119_1 conn=wye bus1=p6ulv8119.1 kV=0.12 Vminpu=0.8 Vmaxpu=1.2 model=1 kW=3.21003 kvar=0.6501428670480555 Phases=1

New Load.load_p6ulv8119_2 conn=wye bus1=p6ulv8119.2 kV=0.12 Vminpu=0.8 Vmaxpu=1.2 model=1 kW=3.21003 kvar=0.6501428670480555 Phases=1

New Load.load_p6ulv8120 conn=wye bus1=p6ulv8120.1.2.3 kV=0.48 Vminpu=0.8 Vmaxpu=1.2 model=1 kW=43.8104 kvar=8.89608114583998 Phases=3

New Load.load_p6ulv8121 conn=wye bus1=p6ulv8121.1.2.3 kV=0.48 Vminpu=0.8 Vmaxpu=1.2 model=1 kW=39.6704 kvar=8.055418290815206 Phases=3

New Load.load_p6ulv8122_1 conn=wye bus1=p6ulv8122.1 kV=0.12 Vminpu=0.8 Vmaxpu=1.2 model=1 kW=8.0101 kvar=1.6265201775444378 Phases=1

New Load.load_p6ulv8122_2 conn=wye bus1=p6ulv8122.2 kV=0.12 Vminpu=0.8 Vmaxpu=1.2 model=1 kW=8.0101 kvar=1.6265201775444378 Phases=1

New Load.load_p6ulv8123 conn=wye bus1=p6ulv8123.1.2.3 kV=0.48 Vminpu=0.8 Vmaxpu=1.2 model=1 kW=37.6204 kvar=7.639148036515493 Phases=3

New Load.load_p6ulv8124_1 conn=wye bus1=p6ulv8124.1 kV=0.12 Vminpu=0.8 Vmaxpu=1.2 model=1 kW=3.490035 kvar=0.7105058878202332 Phases=1

New Load.load_p6ulv8124_2 conn=wye bus1=p6ulv8124.2 kV=0.12 Vminpu=0.8 Vmaxpu=1.2 model=1 kW=3.490035 kvar=0.7105058878202332 Phases=1

New Load.load_p6ulv8125_1 conn=wye bus1=p6ulv8125.1 kV=0.12 Vminpu=0.8 Vmaxpu=1.2 model=1 kW=2.97003 kvar=0.6046425901180724 Phases=1

New Load.load_p6ulv8125_2 conn=wye bus1=p6ulv8125.2 kV=0.12 Vminpu=0.8 Vmaxpu=1.2 model=1 kW=2.97003 kvar=0.6046425901180724 Phases=1

New Load.load_p6ulv8126 conn=wye bus1=p6ulv8126.1.2.3 kV=0.48 Vminpu=0.8 Vmaxpu=1.2 model=1 kW=27.840299999999996 kvar=5.653214029648868 Phases=3

New Load.load_p6ulv8127_1 conn=wye bus1=p6ulv8127.1 kV=0.12 Vminpu=0.8 Vmaxpu=1.2 model=1 kW=4.360045 kvar=0.8853448980039873 Phases=1

New Load.load_p6ulv8127_2 conn=wye bus1=p6ulv8127.2 kV=0.12 Vminpu=0.8 Vmaxpu=1.2 model=1 kW=4.360045 kvar=0.8853448980039873 Phases=1

New Load.load_p6ulv8128 conn=wye bus1=p6ulv8128.1.2.3 kV=0.48 Vminpu=0.8 Vmaxpu=1.2 model=1 kW=44.8004 kvar=9.097109219867646 Phases=3

New Load.load_p6ulv8129_1 conn=wye bus1=p6ulv8129.1 kV=0.12 Vminpu=0.8 Vmaxpu=1.2 model=1 kW=5.83005 kvar=1.1838421444292768 Phases=1

New Load.load_p6ulv8129_2 conn=wye bus1=p6ulv8129.2 kV=0.12 Vminpu=0.8 Vmaxpu=1.2 model=1 kW=5.83005 kvar=1.1838421444292768 Phases=1

New Load.load_p6ulv8130_1 conn=wye bus1=p6ulv8130.1 kV=0.12 Vminpu=0.8 Vmaxpu=1.2 model=1 kW=3.97004 kvar=0.804071360048181 Phases=1

New Load.load_p6ulv8130_2 conn=wye bus1=p6ulv8130.2 kV=0.12 Vminpu=0.8 Vmaxpu=1.2 model=1 kW=3.97004 kvar=0.804071360048181 Phases=1

New Load.load_p6ulv8131_1 conn=wye bus1=p6ulv8131.1 kV=0.12 Vminpu=0.8 Vmaxpu=1.2 model=1 kW=5.33005 kvar=1.0850985469705126 Phases=1

New Load.load_p6ulv8131_2 conn=wye bus1=p6ulv8131.2 kV=0.12 Vminpu=0.8 Vmaxpu=1.2 model=1 kW=5.33005 kvar=1.0850985469705126 Phases=1

New Load.load_p6ulv8132_1 conn=wye bus1=p6ulv8132.1 kV=0.12 Vminpu=0.8 Vmaxpu=1.2 model=1 kW=2.5650250000000003 kvar=0.5195068916956971 Phases=1

New Load.load_p6ulv8132_2 conn=wye bus1=p6ulv8132.2 kV=0.12 Vminpu=0.8 Vmaxpu=1.2 model=1 kW=2.5650250000000003 kvar=0.5195068916956971 Phases=1

New Load.load_p6ulv8133_1 conn=wye bus1=p6ulv8133.1 kV=0.12 Vminpu=0.8 Vmaxpu=1.2 model=1 kW=8.0101 kvar=1.6265201775444378 Phases=1

New Load.load_p6ulv8133_2 conn=wye bus1=p6ulv8133.2 kV=0.12 Vminpu=0.8 Vmaxpu=1.2 model=1 kW=8.0101 kvar=1.6265201775444378 Phases=1

New Load.load_p6ulv8134_1 conn=wye bus1=p6ulv8134.1 kV=0.12 Vminpu=0.8 Vmaxpu=1.2 model=1 kW=1.95002 kvar=0.39494696111907024 Phases=1

New Load.load_p6ulv8134_2 conn=wye bus1=p6ulv8134.2 kV=0.12 Vminpu=0.8 Vmaxpu=1.2 model=1 kW=1.95002 kvar=0.39494696111907024 Phases=1

New Load.load_p6ulv8135_1 conn=wye bus1=p6ulv8135.1 kV=0.12 Vminpu=0.8 Vmaxpu=1.2 model=1 kW=4.555045 kvar=0.9249413368276181 Phases=1

New Load.load_p6ulv8135_2 conn=wye bus1=p6ulv8135.2 kV=0.12 Vminpu=0.8 Vmaxpu=1.2 model=1 kW=4.555045 kvar=0.9249413368276181 Phases=1

New Load.load_p6ulv8136_1 conn=wye bus1=p6ulv8136.1 kV=0.12 Vminpu=0.8 Vmaxpu=1.2 model=1 kW=3.2850350000000006 kvar=0.6653339916615137 Phases=1

New Load.load_p6ulv8136_2 conn=wye bus1=p6ulv8136.2 kV=0.12 Vminpu=0.8 Vmaxpu=1.2 model=1 kW=3.2850350000000006 kvar=0.6653339916615137 Phases=1

New Load.load_p6ulv8137_1 conn=wye bus1=p6ulv8137.1 kV=0.12 Vminpu=0.8 Vmaxpu=1.2 model=1 kW=5.65005 kvar=1.1443318928374084 Phases=1

New Load.load_p6ulv8137_2 conn=wye bus1=p6ulv8137.2 kV=0.12 Vminpu=0.8 Vmaxpu=1.2 model=1 kW=5.65005 kvar=1.1443318928374084 Phases=1

New Load.load_p6ulv8138_1 conn=wye bus1=p6ulv8138.1 kV=0.12 Vminpu=0.8 Vmaxpu=1.2 model=1 kW=1.10001 kvar=0.22508742647757143 Phases=1

New Load.load_p6ulv8138_2 conn=wye bus1=p6ulv8138.2 kV=0.12 Vminpu=0.8 Vmaxpu=1.2 model=1 kW=1.10001 kvar=0.22508742647757143 Phases=1

New Load.load_p6ulv8139 conn=wye bus1=p6ulv8139.1.2.3 kV=0.48 Vminpu=0.8 Vmaxpu=1.2 model=1 kW=19.6902 kvar=3.9982656396156715 Phases=3

New Load.load_p6ulv8140_1 conn=wye bus1=p6ulv8140.1 kV=0.12 Vminpu=0.8 Vmaxpu=1.2 model=1 kW=1.02001 kvar=0.20497723072995336 Phases=1

New Load.load_p6ulv8140_2 conn=wye bus1=p6ulv8140.2 kV=0.12 Vminpu=0.8 Vmaxpu=1.2 model=1 kW=1.02001 kvar=0.20497723072995336 Phases=1

New Load.load_p6ulv8141_1 conn=wye bus1=p6ulv8141.1 kV=0.12 Vminpu=0.8 Vmaxpu=1.2 model=1 kW=0.600005 kvar=0.11993949968758576 Phases=1

New Load.load_p6ulv8141_2 conn=wye bus1=p6ulv8141.2 kV=0.12 Vminpu=0.8 Vmaxpu=1.2 model=1 kW=0.600005 kvar=0.11993949968758576 Phases=1

New Load.load_p6ulv8142 conn=wye bus1=p6ulv8142.1.2.3 kV=0.48 Vminpu=0.8 Vmaxpu=1.2 model=1 kW=73.4807 kvar=14.920892524449076 Phases=3

New Load.load_p6ulv8143_1 conn=wye bus1=p6ulv8143.1 kV=0.12 Vminpu=0.8 Vmaxpu=1.2 model=1 kW=0.87501 kvar=0.17995472722251266 Phases=1

New Load.load_p6ulv8143_2 conn=wye bus1=p6ulv8143.2 kV=0.12 Vminpu=0.8 Vmaxpu=1.2 model=1 kW=0.87501 kvar=0.17995472722251266 Phases=1

New Load.load_p6ulv8144_1 conn=wye bus1=p6ulv8144.1 kV=0.12 Vminpu=0.8 Vmaxpu=1.2 model=1 kW=0.540005 kvar=0.10993492384814621 Phases=1

New Load.load_p6ulv8144_2 conn=wye bus1=p6ulv8144.2 kV=0.12 Vminpu=0.8 Vmaxpu=1.2 model=1 kW=0.540005 kvar=0.10993492384814621 Phases=1

New Load.load_p6ulv8145_1 conn=wye bus1=p6ulv8145.1 kV=0.12 Vminpu=0.8 Vmaxpu=1.2 model=1 kW=1.08501 kvar=0.2197523114038843 Phases=1

New Load.load_p6ulv8145_2 conn=wye bus1=p6ulv8145.2 kV=0.12 Vminpu=0.8 Vmaxpu=1.2 model=1 kW=1.08501 kvar=0.2197523114038843 Phases=1

New Load.load_p6ulv8146_1 conn=wye bus1=p6ulv8146.1 kV=0.12 Vminpu=0.8 Vmaxpu=1.2 model=1 kW=0.9850100000000002 kvar=0.2000148113111006 Phases=1

New Load.load_p6ulv8146_2 conn=wye bus1=p6ulv8146.2 kV=0.12 Vminpu=0.8 Vmaxpu=1.2 model=1 kW=0.9850100000000002 kvar=0.2000148113111006 Phases=1

New Load.load_p6ulv8147_1 conn=wye bus1=p6ulv8147.1 kV=0.12 Vminpu=0.8 Vmaxpu=1.2 model=1 kW=0.81001 kvar=0.16490289472548758 Phases=1

New Load.load_p6ulv8147_2 conn=wye bus1=p6ulv8147.2 kV=0.12 Vminpu=0.8 Vmaxpu=1.2 model=1 kW=0.81001 kvar=0.16490289472548758 Phases=1

New Load.load_p6ulv8148_1 conn=wye bus1=p6ulv8148.1 kV=0.12 Vminpu=0.8 Vmaxpu=1.2 model=1 kW=1.09501 kvar=0.22004893816884757 Phases=1

New Load.load_p6ulv8148_2 conn=wye bus1=p6ulv8148.2 kV=0.12 Vminpu=0.8 Vmaxpu=1.2 model=1 kW=1.09501 kvar=0.22004893816884757 Phases=1

New Load.load_p6ulv8149_1 conn=wye bus1=p6ulv8149.1 kV=0.12 Vminpu=0.8 Vmaxpu=1.2 model=1 kW=1.11001 kvar=0.2248156820503273 Phases=1

New Load.load_p6ulv8149_2 conn=wye bus1=p6ulv8149.2 kV=0.12 Vminpu=0.8 Vmaxpu=1.2 model=1 kW=1.11001 kvar=0.2248156820503273 Phases=1

New Load.load_p6ulv8150_1 conn=wye bus1=p6ulv8150.1 kV=0.12 Vminpu=0.8 Vmaxpu=1.2 model=1 kW=0.89001 kvar=0.17979073645711227 Phases=1

New Load.load_p6ulv8150_2 conn=wye bus1=p6ulv8150.2 kV=0.12 Vminpu=0.8 Vmaxpu=1.2 model=1 kW=0.89001 kvar=0.17979073645711227 Phases=1

New Load.load_p6ulv8151_1 conn=wye bus1=p6ulv8151.1 kV=0.12 Vminpu=0.8 Vmaxpu=1.2 model=1 kW=1.13501 kvar=0.22987905269677025 Phases=1

New Load.load_p6ulv8151_2 conn=wye bus1=p6ulv8151.2 kV=0.12 Vminpu=0.8 Vmaxpu=1.2 model=1 kW=1.13501 kvar=0.22987905269677025 Phases=1

New Load.load_p6ulv8152_1 conn=wye bus1=p6ulv8152.1 kV=0.12 Vminpu=0.8 Vmaxpu=1.2 model=1 kW=1.11001 kvar=0.2248156820503273 Phases=1

New Load.load_p6ulv8152_2 conn=wye bus1=p6ulv8152.2 kV=0.12 Vminpu=0.8 Vmaxpu=1.2 model=1 kW=1.11001 kvar=0.2248156820503273 Phases=1

New Load.load_p6ulv8153_1 conn=wye bus1=p6ulv8153.1 kV=0.12 Vminpu=0.8 Vmaxpu=1.2 model=1 kW=0.82501 kvar=0.17009811707696765 Phases=1

New Load.load_p6ulv8153_2 conn=wye bus1=p6ulv8153.2 kV=0.12 Vminpu=0.8 Vmaxpu=1.2 model=1 kW=0.82501 kvar=0.17009811707696765 Phases=1

New Load.load_p6ulv8154_1 conn=wye bus1=p6ulv8154.1 kV=0.12 Vminpu=0.8 Vmaxpu=1.2 model=1 kW=1.705015 kvar=0.34532491610979965 Phases=1

New Load.load_p6ulv8154_2 conn=wye bus1=p6ulv8154.2 kV=0.12 Vminpu=0.8 Vmaxpu=1.2 model=1 kW=1.705015 kvar=0.34532491610979965 Phases=1

New Load.load_p6ulv8155_1 conn=wye bus1=p6ulv8155.1 kV=0.12 Vminpu=0.8 Vmaxpu=1.2 model=1 kW=1.555015 kvar=0.3149446922311418 Phases=1

New Load.load_p6ulv8155_2 conn=wye bus1=p6ulv8155.2 kV=0.12 Vminpu=0.8 Vmaxpu=1.2 model=1 kW=1.555015 kvar=0.3149446922311418 Phases=1

New Load.load_p6ulv8156_1 conn=wye bus1=p6ulv8156.1 kV=0.12 Vminpu=0.8 Vmaxpu=1.2 model=1 kW=0.93501 kvar=0.18986187827940035 Phases=1

New Load.load_p6ulv8156_2 conn=wye bus1=p6ulv8156.2 kV=0.12 Vminpu=0.8 Vmaxpu=1.2 model=1 kW=0.93501 kvar=0.18986187827940035 Phases=1

New Load.load_p6ulv8157_1 conn=wye bus1=p6ulv8157.1 kV=0.12 Vminpu=0.8 Vmaxpu=1.2 model=1 kW=0.80001 kvar=0.15991999924178213 Phases=1

New Load.load_p6ulv8157_2 conn=wye bus1=p6ulv8157.2 kV=0.12 Vminpu=0.8 Vmaxpu=1.2 model=1 kW=0.80001 kvar=0.15991999924178213 Phases=1

New Load.load_p6ulv8158_1 conn=wye bus1=p6ulv8157.1 kV=0.12 Vminpu=0.8 Vmaxpu=1.2 model=1 kW=0.83001 kvar=0.16983919678061932 Phases=1

New Load.load_p6ulv8158_2 conn=wye bus1=p6ulv8157.2 kV=0.12 Vminpu=0.8 Vmaxpu=1.2 model=1 kW=0.83001 kvar=0.16983919678061932 Phases=1

New Load.load_p6ulv8159_1 conn=wye bus1=p6ulv8159.1 kV=0.12 Vminpu=0.8 Vmaxpu=1.2 model=1 kW=0.745005 kvar=0.15010625560980215 Phases=1

New Load.load_p6ulv8159_2 conn=wye bus1=p6ulv8159.2 kV=0.12 Vminpu=0.8 Vmaxpu=1.2 model=1 kW=0.745005 kvar=0.15010625560980215 Phases=1

New Load.load_p6ulv8160_1 conn=wye bus1=p6ulv8159.1 kV=0.12 Vminpu=0.8 Vmaxpu=1.2 model=1 kW=0.9900100000000001 kvar=0.19999171582331182 Phases=1

New Load.load_p6ulv8160_2 conn=wye bus1=p6ulv8159.2 kV=0.12 Vminpu=0.8 Vmaxpu=1.2 model=1 kW=0.9900100000000001 kvar=0.19999171582331182 Phases=1

New Load.load_p6ulv8161_1 conn=wye bus1=p6ulv8161.1 kV=0.12 Vminpu=0.8 Vmaxpu=1.2 model=1 kW=0.96501 kvar=0.19494147098176193 Phases=1

New Load.load_p6ulv8161_2 conn=wye bus1=p6ulv8161.2 kV=0.12 Vminpu=0.8 Vmaxpu=1.2 model=1 kW=0.96501 kvar=0.19494147098176193 Phases=1

New Load.load_p6ulv8162_1 conn=wye bus1=p6ulv8162.1 kV=0.12 Vminpu=0.8 Vmaxpu=1.2 model=1 kW=0.670005 kvar=0.13499498901328918 Phases=1

New Load.load_p6ulv8162_2 conn=wye bus1=p6ulv8162.2 kV=0.12 Vminpu=0.8 Vmaxpu=1.2 model=1 kW=0.670005 kvar=0.13499498901328918 Phases=1

New Load.load_p6ulv8163_1 conn=wye bus1=p6ulv8163.1 kV=0.12 Vminpu=0.8 Vmaxpu=1.2 model=1 kW=0.83001 kvar=0.16983919678061932 Phases=1

New Load.load_p6ulv8163_2 conn=wye bus1=p6ulv8163.2 kV=0.12 Vminpu=0.8 Vmaxpu=1.2 model=1 kW=0.83001 kvar=0.16983919678061932 Phases=1

New Load.load_p6ulv8164_1 conn=wye bus1=p6ulv8164.1 kV=0.12 Vminpu=0.8 Vmaxpu=1.2 model=1 kW=0.610005 kvar=0.12513777380057528 Phases=1

New Load.load_p6ulv8164_2 conn=wye bus1=p6ulv8164.2 kV=0.12 Vminpu=0.8 Vmaxpu=1.2 model=1 kW=0.610005 kvar=0.12513777380057528 Phases=1

New Load.load_p6ulv8165_1 conn=wye bus1=p6ulv8165.1 kV=0.12 Vminpu=0.8 Vmaxpu=1.2 model=1 kW=1.13001 kvar=0.2300489130612563 Phases=1

New Load.load_p6ulv8165_2 conn=wye bus1=p6ulv8165.2 kV=0.12 Vminpu=0.8 Vmaxpu=1.2 model=1 kW=1.13001 kvar=0.2300489130612563 Phases=1

New Load.load_p6ulv8166_1 conn=wye bus1=p6ulv8166.1 kV=0.12 Vminpu=0.8 Vmaxpu=1.2 model=1 kW=1.2550150000000002 kvar=0.2548416649755849 Phases=1

New Load.load_p6ulv8166_2 conn=wye bus1=p6ulv8166.2 kV=0.12 Vminpu=0.8 Vmaxpu=1.2 model=1 kW=1.2550150000000002 kvar=0.2548416649755849 Phases=1

New Load.load_p6ulv8167_1 conn=wye bus1=p6ulv8167.1 kV=0.12 Vminpu=0.8 Vmaxpu=1.2 model=1 kW=1.06501 kvar=0.21514245034796145 Phases=1

New Load.load_p6ulv8167_2 conn=wye bus1=p6ulv8167.2 kV=0.12 Vminpu=0.8 Vmaxpu=1.2 model=1 kW=1.06501 kvar=0.21514245034796145 Phases=1

New Load.load_p6ulv8168_1 conn=wye bus1=p6ulv8168.1 kV=0.12 Vminpu=0.8 Vmaxpu=1.2 model=1 kW=0.710005 kvar=0.1449139907963921 Phases=1

New Load.load_p6ulv8168_2 conn=wye bus1=p6ulv8168.2 kV=0.12 Vminpu=0.8 Vmaxpu=1.2 model=1 kW=0.710005 kvar=0.1449139907963921 Phases=1

New Load.load_p6ulv8169_1 conn=wye bus1=p6ulv8169.1 kV=0.12 Vminpu=0.8 Vmaxpu=1.2 model=1 kW=1.00501 kvar=0.20512532994877788 Phases=1

New Load.load_p6ulv8169_2 conn=wye bus1=p6ulv8169.2 kV=0.12 Vminpu=0.8 Vmaxpu=1.2 model=1 kW=1.00501 kvar=0.20512532994877788 Phases=1

New Load.load_p6ulv8170_1 conn=wye bus1=p6ulv8170.1 kV=0.12 Vminpu=0.8 Vmaxpu=1.2 model=1 kW=1.08001 kvar=0.21986984769629242 Phases=1

New Load.load_p6ulv8170_2 conn=wye bus1=p6ulv8170.2 kV=0.12 Vminpu=0.8 Vmaxpu=1.2 model=1 kW=1.08001 kvar=0.21986984769629242 Phases=1

New Load.load_p6ulv8171_1 conn=wye bus1=p6ulv8171.1 kV=0.12 Vminpu=0.8 Vmaxpu=1.2 model=1 kW=6.78505 kvar=1.3813093490909611 Phases=1

New Load.load_p6ulv8171_2 conn=wye bus1=p6ulv8171.2 kV=0.12 Vminpu=0.8 Vmaxpu=1.2 model=1 kW=6.78505 kvar=1.3813093490909611 Phases=1

New Load.load_p6ulv8172_1 conn=wye bus1=p6ulv8172.1 kV=0.12 Vminpu=0.8 Vmaxpu=1.2 model=1 kW=0.710005 kvar=0.1449139907963921 Phases=1

New Load.load_p6ulv8172_2 conn=wye bus1=p6ulv8172.2 kV=0.12 Vminpu=0.8 Vmaxpu=1.2 model=1 kW=0.710005 kvar=0.1449139907963921 Phases=1

New Load.load_p6ulv8173_1 conn=wye bus1=p6ulv8173.1 kV=0.12 Vminpu=0.8 Vmaxpu=1.2 model=1 kW=2.03502 kvar=0.4153532292737007 Phases=1

New Load.load_p6ulv8173_2 conn=wye bus1=p6ulv8173.2 kV=0.12 Vminpu=0.8 Vmaxpu=1.2 model=1 kW=2.03502 kvar=0.4153532292737007 Phases=1

New Load.load_p6ulv8174_1 conn=wye bus1=p6ulv8174.1 kV=0.12 Vminpu=0.8 Vmaxpu=1.2 model=1 kW=2.2250200000000007 kvar=0.4494758310938125 Phases=1

New Load.load_p6ulv8174_2 conn=wye bus1=p6ulv8174.2 kV=0.12 Vminpu=0.8 Vmaxpu=1.2 model=1 kW=2.2250200000000007 kvar=0.4494758310938125 Phases=1

New Load.load_p6ulv8175_1 conn=wye bus1=p6ulv8175.1 kV=0.12 Vminpu=0.8 Vmaxpu=1.2 model=1 kW=2.17002 kvar=0.4395046228077686 Phases=1

New Load.load_p6ulv8175_2 conn=wye bus1=p6ulv8175.2 kV=0.12 Vminpu=0.8 Vmaxpu=1.2 model=1 kW=2.17002 kvar=0.4395046228077686 Phases=1

New Load.load_p6ulv8176_1 conn=wye bus1=p6ulv8176.1 kV=0.12 Vminpu=0.8 Vmaxpu=1.2 model=1 kW=0.515005 kvar=0.10511394966246143 Phases=1

New Load.load_p6ulv8176_2 conn=wye bus1=p6ulv8176.2 kV=0.12 Vminpu=0.8 Vmaxpu=1.2 model=1 kW=0.515005 kvar=0.10511394966246143 Phases=1

New Load.load_p6ulv8177_1 conn=wye bus1=p6ulv8177.1 kV=0.12 Vminpu=0.8 Vmaxpu=1.2 model=1 kW=1.05501 kvar=0.21478031501381048 Phases=1

New Load.load_p6ulv8177_2 conn=wye bus1=p6ulv8177.2 kV=0.12 Vminpu=0.8 Vmaxpu=1.2 model=1 kW=1.05501 kvar=0.21478031501381048 Phases=1

New Load.load_p6ulv8178_1 conn=wye bus1=p6ulv8178.1 kV=0.12 Vminpu=0.8 Vmaxpu=1.2 model=1 kW=0.4500045 kvar=0.08995477468881455 Phases=1

New Load.load_p6ulv8178_2 conn=wye bus1=p6ulv8178.2 kV=0.12 Vminpu=0.8 Vmaxpu=1.2 model=1 kW=0.4500045 kvar=0.08995477468881455 Phases=1

New Load.load_p6ulv8179_1 conn=wye bus1=p6ulv8179.1 kV=0.12 Vminpu=0.8 Vmaxpu=1.2 model=1 kW=1.605015 kvar=0.32507143352402773 Phases=1

New Load.load_p6ulv8179_2 conn=wye bus1=p6ulv8179.2 kV=0.12 Vminpu=0.8 Vmaxpu=1.2 model=1 kW=1.605015 kvar=0.32507143352402773 Phases=1

New Load.load_p6ulv8180_1 conn=wye bus1=p6ulv8180.1 kV=0.12 Vminpu=0.8 Vmaxpu=1.2 model=1 kW=1.07501 kvar=0.21997184965377958 Phases=1

New Load.load_p6ulv8180_2 conn=wye bus1=p6ulv8180.2 kV=0.12 Vminpu=0.8 Vmaxpu=1.2 model=1 kW=1.07501 kvar=0.21997184965377958 Phases=1

New Load.load_p6ulv8181_1 conn=wye bus1=p6ulv8181.1 kV=0.12 Vminpu=0.8 Vmaxpu=1.2 model=1 kW=0.550005 kvar=0.10994462467091208 Phases=1

New Load.load_p6ulv8181_2 conn=wye bus1=p6ulv8181.2 kV=0.12 Vminpu=0.8 Vmaxpu=1.2 model=1 kW=0.550005 kvar=0.10994462467091208 Phases=1

New Load.load_p6ulv8182_1 conn=wye bus1=p6ulv8182.1 kV=0.12 Vminpu=0.8 Vmaxpu=1.2 model=1 kW=0.645005 kvar=0.12995790014778485 Phases=1

New Load.load_p6ulv8182_2 conn=wye bus1=p6ulv8182.2 kV=0.12 Vminpu=0.8 Vmaxpu=1.2 model=1 kW=0.645005 kvar=0.12995790014778485 Phases=1

New Load.load_p6ulv8183_1 conn=wye bus1=p6ulv8183.1 kV=0.12 Vminpu=0.8 Vmaxpu=1.2 model=1 kW=0.8650100000000001 kvar=0.175194649715186 Phases=1

New Load.load_p6ulv8183_2 conn=wye bus1=p6ulv8183.2 kV=0.12 Vminpu=0.8 Vmaxpu=1.2 model=1 kW=0.8650100000000001 kvar=0.175194649715186 Phases=1

New Load.load_p6ulv8184_1 conn=wye bus1=p6ulv8184.1 kV=0.12 Vminpu=0.8 Vmaxpu=1.2 model=1 kW=0.710005 kvar=0.1449139907963921 Phases=1

New Load.load_p6ulv8184_2 conn=wye bus1=p6ulv8184.2 kV=0.12 Vminpu=0.8 Vmaxpu=1.2 model=1 kW=0.710005 kvar=0.1449139907963921 Phases=1

New Load.load_p6ulv8185_1 conn=wye bus1=p6ulv8185.1 kV=0.12 Vminpu=0.8 Vmaxpu=1.2 model=1 kW=0.705005 kvar=0.1449914657723998 Phases=1

New Load.load_p6ulv8185_2 conn=wye bus1=p6ulv8185.2 kV=0.12 Vminpu=0.8 Vmaxpu=1.2 model=1 kW=0.705005 kvar=0.1449914657723998 Phases=1

New Load.load_p6ulv8186_1 conn=wye bus1=p6ulv8186.1 kV=0.12 Vminpu=0.8 Vmaxpu=1.2 model=1 kW=0.91001 kvar=0.18478541176355026 Phases=1

New Load.load_p6ulv8186_2 conn=wye bus1=p6ulv8186.2 kV=0.12 Vminpu=0.8 Vmaxpu=1.2 model=1 kW=0.91001 kvar=0.18478541176355026 Phases=1

New Load.load_p6ulv8187_1 conn=wye bus1=p6ulv8187.1 kV=0.12 Vminpu=0.8 Vmaxpu=1.2 model=1 kW=1.04001 kvar=0.21009220550641156 Phases=1

New Load.load_p6ulv8187_2 conn=wye bus1=p6ulv8187.2 kV=0.12 Vminpu=0.8 Vmaxpu=1.2 model=1 kW=1.04001 kvar=0.21009220550641156 Phases=1

New Load.load_p6ulv8188_1 conn=wye bus1=p6ulv8188.1 kV=0.12 Vminpu=0.8 Vmaxpu=1.2 model=1 kW=1.01501 kvar=0.2050419606648617 Phases=1

New Load.load_p6ulv8188_2 conn=wye bus1=p6ulv8188.2 kV=0.12 Vminpu=0.8 Vmaxpu=1.2 model=1 kW=1.01501 kvar=0.2050419606648617 Phases=1

New Load.load_p6ulv8189_1 conn=wye bus1=p6ulv8189.1 kV=0.12 Vminpu=0.8 Vmaxpu=1.2 model=1 kW=0.8600100000000002 kvar=0.17508196009045146 Phases=1

New Load.load_p6ulv8189_2 conn=wye bus1=p6ulv8189.2 kV=0.12 Vminpu=0.8 Vmaxpu=1.2 model=1 kW=0.8600100000000002 kvar=0.17508196009045146 Phases=1

New Load.load_p6ulv8190_1 conn=wye bus1=p6ulv8190.1 kV=0.12 Vminpu=0.8 Vmaxpu=1.2 model=1 kW=1.10501 kvar=0.2249593803787744 Phases=1

New Load.load_p6ulv8190_2 conn=wye bus1=p6ulv8190.2 kV=0.12 Vminpu=0.8 Vmaxpu=1.2 model=1 kW=1.10501 kvar=0.2249593803787744 Phases=1

New Load.load_p6ulv8191_1 conn=wye bus1=p6ulv8191.1 kV=0.12 Vminpu=0.8 Vmaxpu=1.2 model=1 kW=0.740005 kvar=0.14987678380884176 Phases=1

New Load.load_p6ulv8191_2 conn=wye bus1=p6ulv8191.2 kV=0.12 Vminpu=0.8 Vmaxpu=1.2 model=1 kW=0.740005 kvar=0.14987678380884176 Phases=1

New Load.load_p6ulv8192_1 conn=wye bus1=p6ulv8191.1 kV=0.12 Vminpu=0.8 Vmaxpu=1.2 model=1 kW=1.0500100000000003 kvar=0.21485627282998776 Phases=1

New Load.load_p6ulv8192_2 conn=wye bus1=p6ulv8191.2 kV=0.12 Vminpu=0.8 Vmaxpu=1.2 model=1 kW=1.0500100000000003 kvar=0.21485627282998776 Phases=1

New Load.load_p6ulv8193_1 conn=wye bus1=p6ulv8193.1 kV=0.12 Vminpu=0.8 Vmaxpu=1.2 model=1 kW=1.2750150000000002 kvar=0.2602340997250187 Phases=1

New Load.load_p6ulv8193_2 conn=wye bus1=p6ulv8193.2 kV=0.12 Vminpu=0.8 Vmaxpu=1.2 model=1 kW=1.2750150000000002 kvar=0.2602340997250187 Phases=1

New Load.load_p6ulv8194_1 conn=wye bus1=p6ulv8194.1 kV=0.12 Vminpu=0.8 Vmaxpu=1.2 model=1 kW=0.620005 kvar=0.1249208112822805 Phases=1

New Load.load_p6ulv8194_2 conn=wye bus1=p6ulv8194.2 kV=0.12 Vminpu=0.8 Vmaxpu=1.2 model=1 kW=0.620005 kvar=0.1249208112822805 Phases=1

New Load.load_p6ulv8195_1 conn=wye bus1=p6ulv8195.1 kV=0.12 Vminpu=0.8 Vmaxpu=1.2 model=1 kW=0.8650100000000001 kvar=0.175194649715186 Phases=1

New Load.load_p6ulv8195_2 conn=wye bus1=p6ulv8195.2 kV=0.12 Vminpu=0.8 Vmaxpu=1.2 model=1 kW=0.8650100000000001 kvar=0.175194649715186 Phases=1

New Load.load_p6ulv8196_1 conn=wye bus1=p6ulv8196.1 kV=0.12 Vminpu=0.8 Vmaxpu=1.2 model=1 kW=0.700005 kvar=0.1399292497209331 Phases=1

New Load.load_p6ulv8196_2 conn=wye bus1=p6ulv8196.2 kV=0.12 Vminpu=0.8 Vmaxpu=1.2 model=1 kW=0.700005 kvar=0.1399292497209331 Phases=1

New Load.load_p6ulv8197_1 conn=wye bus1=p6ulv8197.1 kV=0.12 Vminpu=0.8 Vmaxpu=1.2 model=1 kW=0.84501 kvar=0.16980991337253348 Phases=1

New Load.load_p6ulv8197_2 conn=wye bus1=p6ulv8197.2 kV=0.12 Vminpu=0.8 Vmaxpu=1.2 model=1 kW=0.84501 kvar=0.16980991337253348 Phases=1

New Load.load_p6ulv11954 conn=wye bus1=p6ulv11954.1.2.3 kV=0.48 Vminpu=0.8 Vmaxpu=1.2 model=1 kW=29.850300000000004 kvar=6.061361937523219 Phases=3

New Load.load_p6ulv11963_1 conn=wye bus1=p6ulv11963.1 kV=0.12 Vminpu=0.8 Vmaxpu=1.2 model=1 kW=0.390004 kvar=0.08000628246214303 Phases=1

New Load.load_p6ulv11963_2 conn=wye bus1=p6ulv11963.2 kV=0.12 Vminpu=0.8 Vmaxpu=1.2 model=1 kW=0.390004 kvar=0.08000628246214303 Phases=1

New Load.load_p6ulv11964_1 conn=wye bus1=p6ulv11964.1 kV=0.12 Vminpu=0.8 Vmaxpu=1.2 model=1 kW=0.49500500000000003 kvar=0.09999585791165591 Phases=1

New Load.load_p6ulv11964_2 conn=wye bus1=p6ulv11964.2 kV=0.12 Vminpu=0.8 Vmaxpu=1.2 model=1 kW=0.49500500000000003 kvar=0.09999585791165591 Phases=1

New Load.load_p6ulv11965_1 conn=wye bus1=p6ulv11965.1 kV=0.12 Vminpu=0.8 Vmaxpu=1.2 model=1 kW=0.375004 kvar=0.07496236221505388 Phases=1

New Load.load_p6ulv11965_2 conn=wye bus1=p6ulv11965.2 kV=0.12 Vminpu=0.8 Vmaxpu=1.2 model=1 kW=0.375004 kvar=0.07496236221505388 Phases=1

New Load.load_p6ulv13098_1 conn=wye bus1=p6ulv13098.1 kV=0.12 Vminpu=0.8 Vmaxpu=1.2 model=1 kW=0.78501 kvar=0.1598133620430056 Phases=1

New Load.load_p6ulv13098_2 conn=wye bus1=p6ulv13098.2 kV=0.12 Vminpu=0.8 Vmaxpu=1.2 model=1 kW=0.78501 kvar=0.1598133620430056 Phases=1

New Load.load_p6ulv13099_1 conn=wye bus1=p6ulv13099.1 kV=0.12 Vminpu=0.8 Vmaxpu=1.2 model=1 kW=0.280003 kvar=0.0550742040398118 Phases=1

New Load.load_p6ulv13099_2 conn=wye bus1=p6ulv13099.2 kV=0.12 Vminpu=0.8 Vmaxpu=1.2 model=1 kW=0.280003 kvar=0.0550742040398118 Phases=1

New Load.load_p6ulv13100 conn=wye bus1=p6ulv13100.1.2.3 kV=0.48 Vminpu=0.8 Vmaxpu=1.2 model=1 kW=21.6602 kvar=4.3982912010646595 Phases=3

New Load.load_p6ulv13101_1 conn=wye bus1=p6ulv13101.1 kV=0.12 Vminpu=0.8 Vmaxpu=1.2 model=1 kW=7.48505 kvar=1.519904227778554 Phases=1

New Load.load_p6ulv13101_2 conn=wye bus1=p6ulv13101.2 kV=0.12 Vminpu=0.8 Vmaxpu=1.2 model=1 kW=7.48505 kvar=1.519904227778554 Phases=1

New Load.load_p6ulv13102_1 conn=wye bus1=p6ulv13102.1 kV=0.12 Vminpu=0.8 Vmaxpu=1.2 model=1 kW=4.04004 kvar=0.8203651113078028 Phases=1

New Load.load_p6ulv13102_2 conn=wye bus1=p6ulv13102.2 kV=0.12 Vminpu=0.8 Vmaxpu=1.2 model=1 kW=4.04004 kvar=0.8203651113078028 Phases=1

New Load.load_p6ulv13103_1 conn=wye bus1=p6ulv13102.1 kV=0.12 Vminpu=0.8 Vmaxpu=1.2 model=1 kW=0.9950100000000001 kvar=0.19995332825032197 Phases=1

New Load.load_p6ulv13103_2 conn=wye bus1=p6ulv13102.2 kV=0.12 Vminpu=0.8 Vmaxpu=1.2 model=1 kW=0.9950100000000001 kvar=0.19995332825032197 Phases=1

New Load.load_p6ulv13104_1 conn=wye bus1=p6ulv13104.1 kV=0.12 Vminpu=0.8 Vmaxpu=1.2 model=1 kW=1.10001 kvar=0.22508742647757143 Phases=1

New Load.load_p6ulv13104_2 conn=wye bus1=p6ulv13104.2 kV=0.12 Vminpu=0.8 Vmaxpu=1.2 model=1 kW=1.10001 kvar=0.22508742647757143 Phases=1

New Load.load_p6ulv13105_1 conn=wye bus1=p6ulv13105.1 kV=0.12 Vminpu=0.8 Vmaxpu=1.2 model=1 kW=1.305015 kvar=0.2649945980072851 Phases=1

New Load.load_p6ulv13105_2 conn=wye bus1=p6ulv13105.2 kV=0.12 Vminpu=0.8 Vmaxpu=1.2 model=1 kW=1.305015 kvar=0.2649945980072851 Phases=1

New Load.load_p6ulv13106_1 conn=wye bus1=p6ulv13106.1 kV=0.12 Vminpu=0.8 Vmaxpu=1.2 model=1 kW=1.20001 kvar=0.2449253710827086 Phases=1

New Load.load_p6ulv13106_2 conn=wye bus1=p6ulv13106.2 kV=0.12 Vminpu=0.8 Vmaxpu=1.2 model=1 kW=1.20001 kvar=0.2449253710827086 Phases=1

New Load.load_p6ulv13107_1 conn=wye bus1=p6ulv13107.1 kV=0.12 Vminpu=0.8 Vmaxpu=1.2 model=1 kW=5.31505 kvar=1.0792669342027645 Phases=1

New Load.load_p6ulv13107_2 conn=wye bus1=p6ulv13107.2 kV=0.12 Vminpu=0.8 Vmaxpu=1.2 model=1 kW=5.31505 kvar=1.0792669342027645 Phases=1

New Load.load_p6ulv13108_1 conn=wye bus1=p6ulv13108.1 kV=0.12 Vminpu=0.8 Vmaxpu=1.2 model=1 kW=2.535025 kvar=0.5147587811737168 Phases=1

New Load.load_p6ulv13108_2 conn=wye bus1=p6ulv13108.2 kV=0.12 Vminpu=0.8 Vmaxpu=1.2 model=1 kW=2.535025 kvar=0.5147587811737168 Phases=1

New Load.load_p6ulv13121_1 conn=wye bus1=p6ulv13121.1 kV=0.12 Vminpu=0.8 Vmaxpu=1.2 model=1 kW=0.420004 kvar=0.08506543699954562 Phases=1

New Load.load_p6ulv13121_2 conn=wye bus1=p6ulv13121.2 kV=0.12 Vminpu=0.8 Vmaxpu=1.2 model=1 kW=0.420004 kvar=0.08506543699954562 Phases=1

New Load.load_p6ulv13122_1 conn=wye bus1=p6ulv13122.1 kV=0.12 Vminpu=0.8 Vmaxpu=1.2 model=1 kW=1.09001 kvar=0.22019269518951132 Phases=1

New Load.load_p6ulv13122_2 conn=wye bus1=p6ulv13122.2 kV=0.12 Vminpu=0.8 Vmaxpu=1.2 model=1 kW=1.09001 kvar=0.22019269518951132 Phases=1

New Load.load_p6ulv13123_1 conn=wye bus1=p6ulv13123.1 kV=0.12 Vminpu=0.8 Vmaxpu=1.2 model=1 kW=0.545005 kvar=0.11009634759475566 Phases=1

New Load.load_p6ulv13123_2 conn=wye bus1=p6ulv13123.2 kV=0.12 Vminpu=0.8 Vmaxpu=1.2 model=1 kW=0.545005 kvar=0.11009634759475566 Phases=1

New Load.load_p6ulv13124_1 conn=wye bus1=p6ulv13124.1 kV=0.12 Vminpu=0.8 Vmaxpu=1.2 model=1 kW=0.665005 kvar=0.135035024614916 Phases=1

New Load.load_p6ulv13124_2 conn=wye bus1=p6ulv13124.2 kV=0.12 Vminpu=0.8 Vmaxpu=1.2 model=1 kW=0.665005 kvar=0.135035024614916 Phases=1

New Load.load_p6ulv13125_1 conn=wye bus1=p6ulv13125.1 kV=0.12 Vminpu=0.8 Vmaxpu=1.2 model=1 kW=0.93501 kvar=0.18986187827940035 Phases=1

New Load.load_p6ulv13125_2 conn=wye bus1=p6ulv13125.2 kV=0.12 Vminpu=0.8 Vmaxpu=1.2 model=1 kW=0.93501 kvar=0.18986187827940035 Phases=1

New Load.load_p6ulv13126_1 conn=wye bus1=p6ulv13126.1 kV=0.12 Vminpu=0.8 Vmaxpu=1.2 model=1 kW=1.350015 kvar=0.27483781857363376 Phases=1

New Load.load_p6ulv13126_2 conn=wye bus1=p6ulv13126.2 kV=0.12 Vminpu=0.8 Vmaxpu=1.2 model=1 kW=1.350015 kvar=0.27483781857363376 Phases=1

New Load.load_p6ulv13140_1 conn=wye bus1=p6ulv13140.1 kV=0.12 Vminpu=0.8 Vmaxpu=1.2 model=1 kW=0.85501 kvar=0.17495477360441117 Phases=1

New Load.load_p6ulv13140_2 conn=wye bus1=p6ulv13140.2 kV=0.12 Vminpu=0.8 Vmaxpu=1.2 model=1 kW=0.85501 kvar=0.17495477360441117 Phases=1

New Load.load_p6ulv13141_1 conn=wye bus1=p6ulv13141.1 kV=0.12 Vminpu=0.8 Vmaxpu=1.2 model=1 kW=1.350015 kvar=0.27483781857363376 Phases=1

New Load.load_p6ulv13141_2 conn=wye bus1=p6ulv13141.2 kV=0.12 Vminpu=0.8 Vmaxpu=1.2 model=1 kW=1.350015 kvar=0.27483781857363376 Phases=1

New Load.load_p6ulv13142_1 conn=wye bus1=p6ulv13142.1 kV=0.12 Vminpu=0.8 Vmaxpu=1.2 model=1 kW=0.665005 kvar=0.135035024614916 Phases=1

New Load.load_p6ulv13142_2 conn=wye bus1=p6ulv13142.2 kV=0.12 Vminpu=0.8 Vmaxpu=1.2 model=1 kW=0.665005 kvar=0.135035024614916 Phases=1

New Load.load_p6ulv13143_1 conn=wye bus1=p6ulv13143.1 kV=0.12 Vminpu=0.8 Vmaxpu=1.2 model=1 kW=0.725005 kvar=0.14492668722926993 Phases=1

New Load.load_p6ulv13143_2 conn=wye bus1=p6ulv13143.2 kV=0.12 Vminpu=0.8 Vmaxpu=1.2 model=1 kW=0.725005 kvar=0.14492668722926993 Phases=1

New Load.load_p6ulv13144_1 conn=wye bus1=p6ulv13144.1 kV=0.12 Vminpu=0.8 Vmaxpu=1.2 model=1 kW=0.645005 kvar=0.12995790014778485 Phases=1

New Load.load_p6ulv13144_2 conn=wye bus1=p6ulv13144.2 kV=0.12 Vminpu=0.8 Vmaxpu=1.2 model=1 kW=0.645005 kvar=0.12995790014778485 Phases=1

New Load.load_p6ulv13146_1 conn=wye bus1=p6ulv13146.1 kV=0.12 Vminpu=0.8 Vmaxpu=1.2 model=1 kW=1.12501 kvar=0.23020300330136328 Phases=1

New Load.load_p6ulv13146_2 conn=wye bus1=p6ulv13146.2 kV=0.12 Vminpu=0.8 Vmaxpu=1.2 model=1 kW=1.12501 kvar=0.23020300330136328 Phases=1
