New Load.load_p6ulv6288_1 conn=wye bus1=p6ulv6288.1 kV=0.12 Vminpu=0.8 Vmaxpu=1.2 model=1 kva=0.415004 pf=1.0 Phases=1
New Load.load_p6ulv6288_2 conn=wye bus1=p6ulv6288.2 kV=0.12 Vminpu=0.8 Vmaxpu=1.2 model=1 kva=0.415004 pf=1.0 Phases=1
New Load.load_p6ulv7111_2 conn=wye bus1=p6ulv7111.2 kV=0.12 Vminpu=0.8 Vmaxpu=1.2 model=1 kva=6.585050000000001 pf=1.0 Phases=1
New Load.load_p6ulv7112_1 conn=wye bus1=p6ulv7112.1 kV=0.12 Vminpu=0.8 Vmaxpu=1.2 model=1 kva=2.77003 pf=1.0 Phases=1
New Load.load_p6ulv7112_2 conn=wye bus1=p6ulv7112.2 kV=0.12 Vminpu=0.8 Vmaxpu=1.2 model=1 kva=2.77003 pf=1.0 Phases=1
New Load.load_p6ulv7113_2 conn=wye bus1=p6ulv7113.2 kV=0.12 Vminpu=0.8 Vmaxpu=1.2 model=1 kva=6.31505 pf=1.0 Phases=1
New Load.load_p6ulv8116 conn=wye bus1=p6ulv8116.1.2.3 kV=0.48 Vminpu=0.8 Vmaxpu=1.2 model=1 kva=86.7309 pf=1.0 Phases=3
New Load.load_p6ulv8117_1 conn=wye bus1=p6ulv8117.1 kV=0.12 Vminpu=0.8 Vmaxpu=1.2 model=1 kva=8.8751 pf=1.0 Phases=1
New Load.load_p6ulv8117_2 conn=wye bus1=p6ulv8117.2 kV=0.12 Vminpu=0.8 Vmaxpu=1.2 model=1 kva=8.8751 pf=1.0 Phases=1
New Load.load_p6ulv8119_1 conn=wye bus1=p6ulv8119.1 kV=0.12 Vminpu=0.8 Vmaxpu=1.2 model=1 kva=3.21003 pf=1.0 Phases=1
New Load.load_p6ulv8120 conn=wye bus1=p6ulv8120.1.2.3 kV=0.48 Vminpu=0.8 Vmaxpu=1.2 model=1 kva=43.8104 pf=1.0 Phases=3
New Load.load_p6ulv8122_1 conn=wye bus1=p6ulv8122.1 kV=0.12 Vminpu=0.8 Vmaxpu=1.2 model=1 kva=8.0101 pf=1.0 Phases=1
New Load.load_p6ulv8123 conn=wye bus1=p6ulv8123.1.2.3 kV=0.48 Vminpu=0.8 Vmaxpu=1.2 model=1 kva=37.6204 pf=1.0 Phases=3
New Load.load_p6ulv8124_1 conn=wye bus1=p6ulv8124.1 kV=0.12 Vminpu=0.8 Vmaxpu=1.2 model=1 kva=3.490035 pf=1.0 Phases=1
New Load.load_p6ulv8124_2 conn=wye bus1=p6ulv8124.2 kV=0.12 Vminpu=0.8 Vmaxpu=1.2 model=1 kva=3.490035 pf=1.0 Phases=1
New Load.load_p6ulv8125_1 conn=wye bus1=p6ulv8125.1 kV=0.12 Vminpu=0.8 Vmaxpu=1.2 model=1 kva=2.97003 pf=1.0 Phases=1
New Load.load_p6ulv8125_2 conn=wye bus1=p6ulv8125.2 kV=0.12 Vminpu=0.8 Vmaxpu=1.2 model=1 kva=2.97003 pf=1.0 Phases=1
New Load.load_p6ulv8127_2 conn=wye bus1=p6ulv8127.2 kV=0.12 Vminpu=0.8 Vmaxpu=1.2 model=1 kva=4.360045 pf=1.0 Phases=1
New Load.load_p6ulv8130_2 conn=wye bus1=p6ulv8130.2 kV=0.12 Vminpu=0.8 Vmaxpu=1.2 model=1 kva=3.97004 pf=1.0 Phases=1
New Load.load_p6ulv8131_1 conn=wye bus1=p6ulv8131.1 kV=0.12 Vminpu=0.8 Vmaxpu=1.2 model=1 kva=5.33005 pf=1.0 Phases=1
New Load.load_p6ulv8132_2 conn=wye bus1=p6ulv8132.2 kV=0.12 Vminpu=0.8 Vmaxpu=1.2 model=1 kva=2.5650250000000003 pf=1.0 Phases=1
New Load.load_p6ulv8133_1 conn=wye bus1=p6ulv8133.1 kV=0.12 Vminpu=0.8 Vmaxpu=1.2 model=1 kva=8.0101 pf=1.0 Phases=1
New Load.load_p6ulv8133_2 conn=wye bus1=p6ulv8133.2 kV=0.12 Vminpu=0.8 Vmaxpu=1.2 model=1 kva=8.0101 pf=1.0 Phases=1
New Load.load_p6ulv8134_2 conn=wye bus1=p6ulv8134.2 kV=0.12 Vminpu=0.8 Vmaxpu=1.2 model=1 kva=1.95002 pf=1.0 Phases=1
New Load.load_p6ulv8135_1 conn=wye bus1=p6ulv8135.1 kV=0.12 Vminpu=0.8 Vmaxpu=1.2 model=1 kva=4.555045 pf=1.0 Phases=1
New Load.load_p6ulv8135_2 conn=wye bus1=p6ulv8135.2 kV=0.12 Vminpu=0.8 Vmaxpu=1.2 model=1 kva=4.555045 pf=1.0 Phases=1
New Load.load_p6ulv8136_1 conn=wye bus1=p6ulv8136.1 kV=0.12 Vminpu=0.8 Vmaxpu=1.2 model=1 kva=3.2850350000000006 pf=1.0 Phases=1
New Load.load_p6ulv8137_1 conn=wye bus1=p6ulv8137.1 kV=0.12 Vminpu=0.8 Vmaxpu=1.2 model=1 kva=5.65005 pf=1.0 Phases=1
New Load.load_p6ulv8137_2 conn=wye bus1=p6ulv8137.2 kV=0.12 Vminpu=0.8 Vmaxpu=1.2 model=1 kva=5.65005 pf=1.0 Phases=1
New Load.load_p6ulv8139 conn=wye bus1=p6ulv8139.1.2.3 kV=0.48 Vminpu=0.8 Vmaxpu=1.2 model=1 kva=19.6902 pf=1.0 Phases=3
New Load.load_p6ulv8140_2 conn=wye bus1=p6ulv8140.2 kV=0.12 Vminpu=0.8 Vmaxpu=1.2 model=1 kva=1.02001 pf=1.0 Phases=1
New Load.load_p6ulv8141_1 conn=wye bus1=p6ulv8141.1 kV=0.12 Vminpu=0.8 Vmaxpu=1.2 model=1 kva=0.600005 pf=1.0 Phases=1
New Load.load_p6ulv8141_2 conn=wye bus1=p6ulv8141.2 kV=0.12 Vminpu=0.8 Vmaxpu=1.2 model=1 kva=0.600005 pf=1.0 Phases=1
New Load.load_p6ulv8142 conn=wye bus1=p6ulv8142.1.2.3 kV=0.48 Vminpu=0.8 Vmaxpu=1.2 model=1 kva=73.4807 pf=1.0 Phases=3
New Load.load_p6ulv8144_1 conn=wye bus1=p6ulv8144.1 kV=0.12 Vminpu=0.8 Vmaxpu=1.2 model=1 kva=0.540005 pf=1.0 Phases=1
New Load.load_p6ulv8144_2 conn=wye bus1=p6ulv8144.2 kV=0.12 Vminpu=0.8 Vmaxpu=1.2 model=1 kva=0.540005 pf=1.0 Phases=1
New Load.load_p6ulv8145_1 conn=wye bus1=p6ulv8145.1 kV=0.12 Vminpu=0.8 Vmaxpu=1.2 model=1 kva=1.08501 pf=1.0 Phases=1
New Load.load_p6ulv8145_2 conn=wye bus1=p6ulv8145.2 kV=0.12 Vminpu=0.8 Vmaxpu=1.2 model=1 kva=1.08501 pf=1.0 Phases=1
New Load.load_p6ulv8146_1 conn=wye bus1=p6ulv8146.1 kV=0.12 Vminpu=0.8 Vmaxpu=1.2 model=1 kva=0.9850100000000002 pf=1.0 Phases=1
New Load.load_p6ulv8147_1 conn=wye bus1=p6ulv8147.1 kV=0.12 Vminpu=0.8 Vmaxpu=1.2 model=1 kva=0.81001 pf=1.0 Phases=1
New Load.load_p6ulv8148_1 conn=wye bus1=p6ulv8148.1 kV=0.12 Vminpu=0.8 Vmaxpu=1.2 model=1 kva=1.09501 pf=1.0 Phases=1
New Load.load_p6ulv8148_2 conn=wye bus1=p6ulv8148.2 kV=0.12 Vminpu=0.8 Vmaxpu=1.2 model=1 kva=1.09501 pf=1.0 Phases=1
New Load.load_p6ulv8149_2 conn=wye bus1=p6ulv8149.2 kV=0.12 Vminpu=0.8 Vmaxpu=1.2 model=1 kva=1.11001 pf=1.0 Phases=1
New Load.load_p6ulv8150_2 conn=wye bus1=p6ulv8150.2 kV=0.12 Vminpu=0.8 Vmaxpu=1.2 model=1 kva=0.89001 pf=1.0 Phases=1
New Load.load_p6ulv8151_1 conn=wye bus1=p6ulv8151.1 kV=0.12 Vminpu=0.8 Vmaxpu=1.2 model=1 kva=1.13501 pf=1.0 Phases=1
New Load.load_p6ulv8154_1 conn=wye bus1=p6ulv8154.1 kV=0.12 Vminpu=0.8 Vmaxpu=1.2 model=1 kva=1.705015 pf=1.0 Phases=1
New Load.load_p6ulv8156_1 conn=wye bus1=p6ulv8156.1 kV=0.12 Vminpu=0.8 Vmaxpu=1.2 model=1 kva=0.93501 pf=1.0 Phases=1
New Load.load_p6ulv8156_2 conn=wye bus1=p6ulv8156.2 kV=0.12 Vminpu=0.8 Vmaxpu=1.2 model=1 kva=0.93501 pf=1.0 Phases=1
New Load.load_p6ulv8157_1 conn=wye bus1=p6ulv8157.1 kV=0.12 Vminpu=0.8 Vmaxpu=1.2 model=1 kva=0.80001 pf=1.0 Phases=1
New Load.load_p6ulv8157_2 conn=wye bus1=p6ulv8157.2 kV=0.12 Vminpu=0.8 Vmaxpu=1.2 model=1 kva=0.80001 pf=1.0 Phases=1
New Load.load_p6ulv8158_1 conn=wye bus1=p6ulv8157.1 kV=0.12 Vminpu=0.8 Vmaxpu=1.2 model=1 kva=0.83001 pf=1.0 Phases=1
New Load.load_p6ulv8158_2 conn=wye bus1=p6ulv8157.2 kV=0.12 Vminpu=0.8 Vmaxpu=1.2 model=1 kva=0.83001 pf=1.0 Phases=1
New Load.load_p6ulv8159_1 conn=wye bus1=p6ulv8159.1 kV=0.12 Vminpu=0.8 Vmaxpu=1.2 model=1 kva=0.745005 pf=1.0 Phases=1
New Load.load_p6ulv8159_2 conn=wye bus1=p6ulv8159.2 kV=0.12 Vminpu=0.8 Vmaxpu=1.2 model=1 kva=0.745005 pf=1.0 Phases=1
New Load.load_p6ulv8160_1 conn=wye bus1=p6ulv8159.1 kV=0.12 Vminpu=0.8 Vmaxpu=1.2 model=1 kva=0.9900100000000001 pf=1.0 Phases=1
New Load.load_p6ulv8160_2 conn=wye bus1=p6ulv8159.2 kV=0.12 Vminpu=0.8 Vmaxpu=1.2 model=1 kva=0.9900100000000001 pf=1.0 Phases=1
New Load.load_p6ulv8161_2 conn=wye bus1=p6ulv8161.2 kV=0.12 Vminpu=0.8 Vmaxpu=1.2 model=1 kva=0.96501 pf=1.0 Phases=1
New Load.load_p6ulv8162_1 conn=wye bus1=p6ulv8162.1 kV=0.12 Vminpu=0.8 Vmaxpu=1.2 model=1 kva=0.670005 pf=1.0 Phases=1
New Load.load_p6ulv8162_2 conn=wye bus1=p6ulv8162.2 kV=0.12 Vminpu=0.8 Vmaxpu=1.2 model=1 kva=0.670005 pf=1.0 Phases=1
New Load.load_p6ulv8163_1 conn=wye bus1=p6ulv8163.1 kV=0.12 Vminpu=0.8 Vmaxpu=1.2 model=1 kva=0.83001 pf=1.0 Phases=1
New Load.load_p6ulv8164_1 conn=wye bus1=p6ulv8164.1 kV=0.12 Vminpu=0.8 Vmaxpu=1.2 model=1 kva=0.610005 pf=1.0 Phases=1
New Load.load_p6ulv8164_2 conn=wye bus1=p6ulv8164.2 kV=0.12 Vminpu=0.8 Vmaxpu=1.2 model=1 kva=0.610005 pf=1.0 Phases=1
New Load.load_p6ulv8165_2 conn=wye bus1=p6ulv8165.2 kV=0.12 Vminpu=0.8 Vmaxpu=1.2 model=1 kva=1.13001 pf=1.0 Phases=1
New Load.load_p6ulv8166_1 conn=wye bus1=p6ulv8166.1 kV=0.12 Vminpu=0.8 Vmaxpu=1.2 model=1 kva=1.2550150000000002 pf=1.0 Phases=1
New Load.load_p6ulv8167_2 conn=wye bus1=p6ulv8167.2 kV=0.12 Vminpu=0.8 Vmaxpu=1.2 model=1 kva=1.06501 pf=1.0 Phases=1
New Load.load_p6ulv8168_1 conn=wye bus1=p6ulv8168.1 kV=0.12 Vminpu=0.8 Vmaxpu=1.2 model=1 kva=0.710005 pf=1.0 Phases=1
New Load.load_p6ulv8168_2 conn=wye bus1=p6ulv8168.2 kV=0.12 Vminpu=0.8 Vmaxpu=1.2 model=1 kva=0.710005 pf=1.0 Phases=1
New Load.load_p6ulv8169_1 conn=wye bus1=p6ulv8169.1 kV=0.12 Vminpu=0.8 Vmaxpu=1.2 model=1 kva=1.00501 pf=1.0 Phases=1
New Load.load_p6ulv8172_1 conn=wye bus1=p6ulv8172.1 kV=0.12 Vminpu=0.8 Vmaxpu=1.2 model=1 kva=0.710005 pf=1.0 Phases=1
New Load.load_p6ulv8173_2 conn=wye bus1=p6ulv8173.2 kV=0.12 Vminpu=0.8 Vmaxpu=1.2 model=1 kva=2.03502 pf=1.0 Phases=1
New Load.load_p6ulv8174_2 conn=wye bus1=p6ulv8174.2 kV=0.12 Vminpu=0.8 Vmaxpu=1.2 model=1 kva=2.2250200000000007 pf=1.0 Phases=1
New Load.load_p6ulv8176_1 conn=wye bus1=p6ulv8176.1 kV=0.12 Vminpu=0.8 Vmaxpu=1.2 model=1 kva=0.515005 pf=1.0 Phases=1
New Load.load_p6ulv8176_2 conn=wye bus1=p6ulv8176.2 kV=0.12 Vminpu=0.8 Vmaxpu=1.2 model=1 kva=0.515005 pf=1.0 Phases=1
New Load.load_p6ulv8177_1 conn=wye bus1=p6ulv8177.1 kV=0.12 Vminpu=0.8 Vmaxpu=1.2 model=1 kva=1.05501 pf=1.0 Phases=1
New Load.load_p6ulv8177_2 conn=wye bus1=p6ulv8177.2 kV=0.12 Vminpu=0.8 Vmaxpu=1.2 model=1 kva=1.05501 pf=1.0 Phases=1
New Load.load_p6ulv8178_1 conn=wye bus1=p6ulv8178.1 kV=0.12 Vminpu=0.8 Vmaxpu=1.2 model=1 kva=0.4500045 pf=1.0 Phases=1
New Load.load_p6ulv8179_1 conn=wye bus1=p6ulv8179.1 kV=0.12 Vminpu=0.8 Vmaxpu=1.2 model=1 kva=1.605015 pf=1.0 Phases=1
New Load.load_p6ulv8180_1 conn=wye bus1=p6ulv8180.1 kV=0.12 Vminpu=0.8 Vmaxpu=1.2 model=1 kva=1.07501 pf=1.0 Phases=1
New Load.load_p6ulv8181_1 conn=wye bus1=p6ulv8181.1 kV=0.12 Vminpu=0.8 Vmaxpu=1.2 model=1 kva=0.550005 pf=1.0 Phases=1
New Load.load_p6ulv8181_2 conn=wye bus1=p6ulv8181.2 kV=0.12 Vminpu=0.8 Vmaxpu=1.2 model=1 kva=0.550005 pf=1.0 Phases=1
New Load.load_p6ulv8182_1 conn=wye bus1=p6ulv8182.1 kV=0.12 Vminpu=0.8 Vmaxpu=1.2 model=1 kva=0.645005 pf=1.0 Phases=1
New Load.load_p6ulv8182_2 conn=wye bus1=p6ulv8182.2 kV=0.12 Vminpu=0.8 Vmaxpu=1.2 model=1 kva=0.645005 pf=1.0 Phases=1
New Load.load_p6ulv8183_1 conn=wye bus1=p6ulv8183.1 kV=0.12 Vminpu=0.8 Vmaxpu=1.2 model=1 kva=0.8650100000000001 pf=1.0 Phases=1
New Load.load_p6ulv8184_1 conn=wye bus1=p6ulv8184.1 kV=0.12 Vminpu=0.8 Vmaxpu=1.2 model=1 kva=0.710005 pf=1.0 Phases=1
New Load.load_p6ulv8184_2 conn=wye bus1=p6ulv8184.2 kV=0.12 Vminpu=0.8 Vmaxpu=1.2 model=1 kva=0.710005 pf=1.0 Phases=1
New Load.load_p6ulv8185_1 conn=wye bus1=p6ulv8185.1 kV=0.12 Vminpu=0.8 Vmaxpu=1.2 model=1 kva=0.705005 pf=1.0 Phases=1
New Load.load_p6ulv8185_2 conn=wye bus1=p6ulv8185.2 kV=0.12 Vminpu=0.8 Vmaxpu=1.2 model=1 kva=0.705005 pf=1.0 Phases=1
New Load.load_p6ulv8187_1 conn=wye bus1=p6ulv8187.1 kV=0.12 Vminpu=0.8 Vmaxpu=1.2 model=1 kva=1.04001 pf=1.0 Phases=1
New Load.load_p6ulv8189_1 conn=wye bus1=p6ulv8189.1 kV=0.12 Vminpu=0.8 Vmaxpu=1.2 model=1 kva=0.8600100000000002 pf=1.0 Phases=1
New Load.load_p6ulv8189_2 conn=wye bus1=p6ulv8189.2 kV=0.12 Vminpu=0.8 Vmaxpu=1.2 model=1 kva=0.8600100000000002 pf=1.0 Phases=1
New Load.load_p6ulv8190_2 conn=wye bus1=p6ulv8190.2 kV=0.12 Vminpu=0.8 Vmaxpu=1.2 model=1 kva=1.10501 pf=1.0 Phases=1
New Load.load_p6ulv8191_2 conn=wye bus1=p6ulv8191.2 kV=0.12 Vminpu=0.8 Vmaxpu=1.2 model=1 kva=0.740005 pf=1.0 Phases=1
New Load.load_p6ulv8192_1 conn=wye bus1=p6ulv8191.1 kV=0.12 Vminpu=0.8 Vmaxpu=1.2 model=1 kva=1.0500100000000003 pf=1.0 Phases=1
New Load.load_p6ulv8192_2 conn=wye bus1=p6ulv8191.2 kV=0.12 Vminpu=0.8 Vmaxpu=1.2 model=1 kva=1.0500100000000003 pf=1.0 Phases=1
New Load.load_p6ulv8193_1 conn=wye bus1=p6ulv8193.1 kV=0.12 Vminpu=0.8 Vmaxpu=1.2 model=1 kva=1.2750150000000002 pf=1.0 Phases=1
New Load.load_p6ulv8193_2 conn=wye bus1=p6ulv8193.2 kV=0.12 Vminpu=0.8 Vmaxpu=1.2 model=1 kva=1.2750150000000002 pf=1.0 Phases=1
New Load.load_p6ulv8194_2 conn=wye bus1=p6ulv8194.2 kV=0.12 Vminpu=0.8 Vmaxpu=1.2 model=1 kva=0.620005 pf=1.0 Phases=1
New Load.load_p6ulv8195_1 conn=wye bus1=p6ulv8195.1 kV=0.12 Vminpu=0.8 Vmaxpu=1.2 model=1 kva=0.8650100000000001 pf=1.0 Phases=1
New Load.load_p6ulv8195_2 conn=wye bus1=p6ulv8195.2 kV=0.12 Vminpu=0.8 Vmaxpu=1.2 model=1 kva=0.8650100000000001 pf=1.0 Phases=1
New Load.load_p6ulv8197_1 conn=wye bus1=p6ulv8197.1 kV=0.12 Vminpu=0.8 Vmaxpu=1.2 model=1 kva=0.84501 pf=1.0 Phases=1
New Load.load_p6ulv8197_2 conn=wye bus1=p6ulv8197.2 kV=0.12 Vminpu=0.8 Vmaxpu=1.2 model=1 kva=0.84501 pf=1.0 Phases=1
New Load.load_p6ulv11954 conn=wye bus1=p6ulv11954.1.2.3 kV=0.48 Vminpu=0.8 Vmaxpu=1.2 model=1 kva=29.850300000000004 pf=1.0 Phases=3
New Load.load_p6ulv11963_2 conn=wye bus1=p6ulv11963.2 kV=0.12 Vminpu=0.8 Vmaxpu=1.2 model=1 kva=0.390004 pf=1.0 Phases=1
New Load.load_p6ulv11964_1 conn=wye bus1=p6ulv11964.1 kV=0.12 Vminpu=0.8 Vmaxpu=1.2 model=1 kva=0.49500500000000003 pf=1.0 Phases=1
New Load.load_p6ulv11964_2 conn=wye bus1=p6ulv11964.2 kV=0.12 Vminpu=0.8 Vmaxpu=1.2 model=1 kva=0.49500500000000003 pf=1.0 Phases=1
New Load.load_p6ulv11965_1 conn=wye bus1=p6ulv11965.1 kV=0.12 Vminpu=0.8 Vmaxpu=1.2 model=1 kva=0.375004 pf=1.0 Phases=1
New Load.load_p6ulv11965_2 conn=wye bus1=p6ulv11965.2 kV=0.12 Vminpu=0.8 Vmaxpu=1.2 model=1 kva=0.375004 pf=1.0 Phases=1
New Load.load_p6ulv13098_1 conn=wye bus1=p6ulv13098.1 kV=0.12 Vminpu=0.8 Vmaxpu=1.2 model=1 kva=0.78501 pf=1.0 Phases=1
New Load.load_p6ulv13098_2 conn=wye bus1=p6ulv13098.2 kV=0.12 Vminpu=0.8 Vmaxpu=1.2 model=1 kva=0.78501 pf=1.0 Phases=1
New Load.load_p6ulv13099_1 conn=wye bus1=p6ulv13099.1 kV=0.12 Vminpu=0.8 Vmaxpu=1.2 model=1 kva=0.280003 pf=1.0 Phases=1
New Load.load_p6ulv13100 conn=wye bus1=p6ulv13100.1.2.3 kV=0.48 Vminpu=0.8 Vmaxpu=1.2 model=1 kva=21.6602 pf=1.0 Phases=3
New Load.load_p6ulv13101_1 conn=wye bus1=p6ulv13101.1 kV=0.12 Vminpu=0.8 Vmaxpu=1.2 model=1 kva=7.48505 pf=1.0 Phases=1
New Load.load_p6ulv13101_2 conn=wye bus1=p6ulv13101.2 kV=0.12 Vminpu=0.8 Vmaxpu=1.2 model=1 kva=7.48505 pf=1.0 Phases=1
New Load.load_p6ulv13102_1 conn=wye bus1=p6ulv13102.1 kV=0.12 Vminpu=0.8 Vmaxpu=1.2 model=1 kva=4.04004 pf=1.0 Phases=1
New Load.load_p6ulv13102_2 conn=wye bus1=p6ulv13102.2 kV=0.12 Vminpu=0.8 Vmaxpu=1.2 model=1 kva=4.04004 pf=1.0 Phases=1
New Load.load_p6ulv13103_1 conn=wye bus1=p6ulv13102.1 kV=0.12 Vminpu=0.8 Vmaxpu=1.2 model=1 kva=0.9950100000000001 pf=1.0 Phases=1
New Load.load_p6ulv13103_2 conn=wye bus1=p6ulv13102.2 kV=0.12 Vminpu=0.8 Vmaxpu=1.2 model=1 kva=0.9950100000000001 pf=1.0 Phases=1
New Load.load_p6ulv13104_2 conn=wye bus1=p6ulv13104.2 kV=0.12 Vminpu=0.8 Vmaxpu=1.2 model=1 kva=1.10001 pf=1.0 Phases=1
New Load.load_p6ulv13105_2 conn=wye bus1=p6ulv13105.2 kV=0.12 Vminpu=0.8 Vmaxpu=1.2 model=1 kva=1.305015 pf=1.0 Phases=1
New Load.load_p6ulv13106_1 conn=wye bus1=p6ulv13106.1 kV=0.12 Vminpu=0.8 Vmaxpu=1.2 model=1 kva=1.20001 pf=1.0 Phases=1
New Load.load_p6ulv13107_1 conn=wye bus1=p6ulv13107.1 kV=0.12 Vminpu=0.8 Vmaxpu=1.2 model=1 kva=5.31505 pf=1.0 Phases=1
New Load.load_p6ulv13108_1 conn=wye bus1=p6ulv13108.1 kV=0.12 Vminpu=0.8 Vmaxpu=1.2 model=1 kva=2.535025 pf=1.0 Phases=1
New Load.load_p6ulv13108_2 conn=wye bus1=p6ulv13108.2 kV=0.12 Vminpu=0.8 Vmaxpu=1.2 model=1 kva=2.535025 pf=1.0 Phases=1
New Load.load_p6ulv13121_2 conn=wye bus1=p6ulv13121.2 kV=0.12 Vminpu=0.8 Vmaxpu=1.2 model=1 kva=0.420004 pf=1.0 Phases=1
New Load.load_p6ulv13122_1 conn=wye bus1=p6ulv13122.1 kV=0.12 Vminpu=0.8 Vmaxpu=1.2 model=1 kva=1.09001 pf=1.0 Phases=1
New Load.load_p6ulv13122_2 conn=wye bus1=p6ulv13122.2 kV=0.12 Vminpu=0.8 Vmaxpu=1.2 model=1 kva=1.09001 pf=1.0 Phases=1
New Load.load_p6ulv13123_2 conn=wye bus1=p6ulv13123.2 kV=0.12 Vminpu=0.8 Vmaxpu=1.2 model=1 kva=0.545005 pf=1.0 Phases=1
New Load.load_p6ulv13124_1 conn=wye bus1=p6ulv13124.1 kV=0.12 Vminpu=0.8 Vmaxpu=1.2 model=1 kva=0.665005 pf=1.0 Phases=1
New Load.load_p6ulv13124_2 conn=wye bus1=p6ulv13124.2 kV=0.12 Vminpu=0.8 Vmaxpu=1.2 model=1 kva=0.665005 pf=1.0 Phases=1
New Load.load_p6ulv13125_1 conn=wye bus1=p6ulv13125.1 kV=0.12 Vminpu=0.8 Vmaxpu=1.2 model=1 kva=0.93501 pf=1.0 Phases=1
New Load.load_p6ulv13126_2 conn=wye bus1=p6ulv13126.2 kV=0.12 Vminpu=0.8 Vmaxpu=1.2 model=1 kva=1.350015 pf=1.0 Phases=1
New Load.load_p6ulv13140_1 conn=wye bus1=p6ulv13140.1 kV=0.12 Vminpu=0.8 Vmaxpu=1.2 model=1 kva=0.85501 pf=1.0 Phases=1
New Load.load_p6ulv13140_2 conn=wye bus1=p6ulv13140.2 kV=0.12 Vminpu=0.8 Vmaxpu=1.2 model=1 kva=0.85501 pf=1.0 Phases=1
New Load.load_p6ulv13141_1 conn=wye bus1=p6ulv13141.1 kV=0.12 Vminpu=0.8 Vmaxpu=1.2 model=1 kva=1.350015 pf=1.0 Phases=1
New Load.load_p6ulv13141_2 conn=wye bus1=p6ulv13141.2 kV=0.12 Vminpu=0.8 Vmaxpu=1.2 model=1 kva=1.350015 pf=1.0 Phases=1
New Load.load_p6ulv13142_1 conn=wye bus1=p6ulv13142.1 kV=0.12 Vminpu=0.8 Vmaxpu=1.2 model=1 kva=0.665005 pf=1.0 Phases=1
New Load.load_p6ulv13142_2 conn=wye bus1=p6ulv13142.2 kV=0.12 Vminpu=0.8 Vmaxpu=1.2 model=1 kva=0.665005 pf=1.0 Phases=1
New Load.load_p6ulv13144_1 conn=wye bus1=p6ulv13144.1 kV=0.12 Vminpu=0.8 Vmaxpu=1.2 model=1 kva=0.645005 pf=1.0 Phases=1
New Load.load_p6ulv13146_1 conn=wye bus1=p6ulv13146.1 kV=0.12 Vminpu=0.8 Vmaxpu=1.2 model=1 kva=1.12501 pf=1.0 Phases=1
New Load.load_p6ulv13146_2 conn=wye bus1=p6ulv13146.2 kV=0.12 Vminpu=0.8 Vmaxpu=1.2 model=1 kva=1.12501 pf=1.0 Phases=1
New Load.load_p6ulv13147_1 conn=wye bus1=p6ulv13147.1 kV=0.12 Vminpu=0.8 Vmaxpu=1.2 model=1 kva=0.97501 pf=1.0 Phases=1
New Load.load_p6ulv13148_2 conn=wye bus1=p6ulv13148.2 kV=0.12 Vminpu=0.8 Vmaxpu=1.2 model=1 kva=0.96001 pf=1.0 Phases=1
New Load.load_p6ulv13150_1 conn=wye bus1=p6ulv13150.1 kV=0.12 Vminpu=0.8 Vmaxpu=1.2 model=1 kva=0.87501 pf=1.0 Phases=1
New Load.load_p6ulv13150_2 conn=wye bus1=p6ulv13150.2 kV=0.12 Vminpu=0.8 Vmaxpu=1.2 model=1 kva=0.87501 pf=1.0 Phases=1
New Load.load_p6ulv13151_1 conn=wye bus1=p6ulv13151.1 kV=0.12 Vminpu=0.8 Vmaxpu=1.2 model=1 kva=0.92501 pf=1.0 Phases=1
New Load.load_p6ulv13152_1 conn=wye bus1=p6ulv13152.1 kV=0.12 Vminpu=0.8 Vmaxpu=1.2 model=1 kva=1.13001 pf=1.0 Phases=1
New Load.load_p6ulv13152_2 conn=wye bus1=p6ulv13152.2 kV=0.12 Vminpu=0.8 Vmaxpu=1.2 model=1 kva=1.13001 pf=1.0 Phases=1
New Load.load_p6ulv13153_1 conn=wye bus1=p6ulv13153.1 kV=0.12 Vminpu=0.8 Vmaxpu=1.2 model=1 kva=0.6500050000000002 pf=1.0 Phases=1
New Load.load_p6ulv13153_2 conn=wye bus1=p6ulv13153.2 kV=0.12 Vminpu=0.8 Vmaxpu=1.2 model=1 kva=0.6500050000000002 pf=1.0 Phases=1
New Load.load_p6ulv13154_1 conn=wye bus1=p6ulv13154.1 kV=0.12 Vminpu=0.8 Vmaxpu=1.2 model=1 kva=0.79001 pf=1.0 Phases=1
New Load.load_p6ulv13154_2 conn=wye bus1=p6ulv13154.2 kV=0.12 Vminpu=0.8 Vmaxpu=1.2 model=1 kva=0.79001 pf=1.0 Phases=1
New Load.load_p6ulv13155_1 conn=wye bus1=p6ulv13155.1 kV=0.12 Vminpu=0.8 Vmaxpu=1.2 model=1 kva=0.94501 pf=1.0 Phases=1
New Load.load_p6ulv13155_2 conn=wye bus1=p6ulv13155.2 kV=0.12 Vminpu=0.8 Vmaxpu=1.2 model=1 kva=0.94501 pf=1.0 Phases=1
New Load.load_p6ulv13156_1 conn=wye bus1=p6ulv13156.1 kV=0.12 Vminpu=0.8 Vmaxpu=1.2 model=1 kva=0.720005 pf=1.0 Phases=1
New Load.load_p6ulv13156_2 conn=wye bus1=p6ulv13156.2 kV=0.12 Vminpu=0.8 Vmaxpu=1.2 model=1 kva=0.720005 pf=1.0 Phases=1
New Load.load_p6ulv13162_2 conn=wye bus1=p6ulv13162.2 kV=0.12 Vminpu=0.8 Vmaxpu=1.2 model=1 kva=0.635005 pf=1.0 Phases=1
New Load.load_p6ulv13163_1 conn=wye bus1=p6ulv13163.1 kV=0.12 Vminpu=0.8 Vmaxpu=1.2 model=1 kva=0.630005 pf=1.0 Phases=1
New Load.load_p6ulv13164_1 conn=wye bus1=p6ulv13164.1 kV=0.12 Vminpu=0.8 Vmaxpu=1.2 model=1 kva=0.720005 pf=1.0 Phases=1
New Load.load_p6ulv13165_2 conn=wye bus1=p6ulv13165.2 kV=0.12 Vminpu=0.8 Vmaxpu=1.2 model=1 kva=0.630005 pf=1.0 Phases=1
New Load.load_p6ulv13166_1 conn=wye bus1=p6ulv13166.1 kV=0.12 Vminpu=0.8 Vmaxpu=1.2 model=1 kva=1.11001 pf=1.0 Phases=1
New Load.load_p6ulv13166_2 conn=wye bus1=p6ulv13166.2 kV=0.12 Vminpu=0.8 Vmaxpu=1.2 model=1 kva=1.11001 pf=1.0 Phases=1
New Load.load_p6ulv13167_1 conn=wye bus1=p6ulv13167.1 kV=0.12 Vminpu=0.8 Vmaxpu=1.2 model=1 kva=0.665005 pf=1.0 Phases=1
New Load.load_p6ulv13167_2 conn=wye bus1=p6ulv13167.2 kV=0.12 Vminpu=0.8 Vmaxpu=1.2 model=1 kva=0.665005 pf=1.0 Phases=1
New Load.load_p6ulv13168_1 conn=wye bus1=p6ulv13168.1 kV=0.12 Vminpu=0.8 Vmaxpu=1.2 model=1 kva=1.19501 pf=1.0 Phases=1
New Load.load_p6ulv13168_2 conn=wye bus1=p6ulv13168.2 kV=0.12 Vminpu=0.8 Vmaxpu=1.2 model=1 kva=1.19501 pf=1.0 Phases=1
New Load.load_p6ulv13169_2 conn=wye bus1=p6ulv13169.2 kV=0.12 Vminpu=0.8 Vmaxpu=1.2 model=1 kva=1.475015 pf=1.0 Phases=1
New Load.load_p6ulv13185_2 conn=wye bus1=p6ulv13185.2 kV=0.12 Vminpu=0.8 Vmaxpu=1.2 model=1 kva=0.79501 pf=1.0 Phases=1
New Load.load_p6ulv13186_1 conn=wye bus1=p6ulv13186.1 kV=0.12 Vminpu=0.8 Vmaxpu=1.2 model=1 kva=0.91001 pf=1.0 Phases=1
New Load.load_p6ulv13188_1 conn=wye bus1=p6ulv13188.1 kV=0.12 Vminpu=0.8 Vmaxpu=1.2 model=1 kva=0.78501 pf=1.0 Phases=1
New Load.load_p6ulv13189_1 conn=wye bus1=p6ulv13189.1 kV=0.12 Vminpu=0.8 Vmaxpu=1.2 model=1 kva=0.81001 pf=1.0 Phases=1
New Load.load_p6ulv13189_2 conn=wye bus1=p6ulv13189.2 kV=0.12 Vminpu=0.8 Vmaxpu=1.2 model=1 kva=0.81001 pf=1.0 Phases=1
New Load.load_p6ulv13191_1 conn=wye bus1=p6ulv13191.1 kV=0.12 Vminpu=0.8 Vmaxpu=1.2 model=1 kva=1.05501 pf=1.0 Phases=1
New Load.load_p6ulv13191_2 conn=wye bus1=p6ulv13191.2 kV=0.12 Vminpu=0.8 Vmaxpu=1.2 model=1 kva=1.05501 pf=1.0 Phases=1
New Load.load_p6ulv13192_1 conn=wye bus1=p6ulv13192.1 kV=0.12 Vminpu=0.8 Vmaxpu=1.2 model=1 kva=0.84501 pf=1.0 Phases=1
New Load.load_p6ulv13192_2 conn=wye bus1=p6ulv13192.2 kV=0.12 Vminpu=0.8 Vmaxpu=1.2 model=1 kva=0.84501 pf=1.0 Phases=1
New Load.load_p6ulv13193_1 conn=wye bus1=p6ulv13193.1 kV=0.12 Vminpu=0.8 Vmaxpu=1.2 model=1 kva=0.91501 pf=1.0 Phases=1
New Load.load_p6ulv13193_2 conn=wye bus1=p6ulv13193.2 kV=0.12 Vminpu=0.8 Vmaxpu=1.2 model=1 kva=0.91501 pf=1.0 Phases=1
New Load.load_p6ulv13194_1 conn=wye bus1=p6ulv13193.1 kV=0.12 Vminpu=0.8 Vmaxpu=1.2 model=1 kva=0.89501 pf=1.0 Phases=1
New Load.load_p6ulv13194_2 conn=wye bus1=p6ulv13193.2 kV=0.12 Vminpu=0.8 Vmaxpu=1.2 model=1 kva=0.89501 pf=1.0 Phases=1
New Load.load_p6ulv13195_1 conn=wye bus1=p6ulv13195.1 kV=0.12 Vminpu=0.8 Vmaxpu=1.2 model=1 kva=0.640005 pf=1.0 Phases=1
New Load.load_p6ulv13196_1 conn=wye bus1=p6ulv13196.1 kV=0.12 Vminpu=0.8 Vmaxpu=1.2 model=1 kva=1.22501 pf=1.0 Phases=1
New Load.load_p6ulv13196_2 conn=wye bus1=p6ulv13196.2 kV=0.12 Vminpu=0.8 Vmaxpu=1.2 model=1 kva=1.22501 pf=1.0 Phases=1
New Load.load_p6ulv13197_1 conn=wye bus1=p6ulv13197.1 kV=0.12 Vminpu=0.8 Vmaxpu=1.2 model=1 kva=1.07001 pf=1.0 Phases=1
New Load.load_p6ulv13197_2 conn=wye bus1=p6ulv13197.2 kV=0.12 Vminpu=0.8 Vmaxpu=1.2 model=1 kva=1.07001 pf=1.0 Phases=1
New Load.load_p6ulv13198_1 conn=wye bus1=p6ulv13198.1 kV=0.12 Vminpu=0.8 Vmaxpu=1.2 model=1 kva=0.605005 pf=1.0 Phases=1
New Load.load_p6ulv13198_2 conn=wye bus1=p6ulv13198.2 kV=0.12 Vminpu=0.8 Vmaxpu=1.2 model=1 kva=0.605005 pf=1.0 Phases=1
New Load.load_p6ulv13200_1 conn=wye bus1=p6ulv13200.1 kV=0.12 Vminpu=0.8 Vmaxpu=1.2 model=1 kva=0.685005 pf=1.0 Phases=1
New Load.load_p6ulv13201_1 conn=wye bus1=p6ulv13201.1 kV=0.12 Vminpu=0.8 Vmaxpu=1.2 model=1 kva=0.700005 pf=1.0 Phases=1
New Load.load_p6ulv13201_2 conn=wye bus1=p6ulv13201.2 kV=0.12 Vminpu=0.8 Vmaxpu=1.2 model=1 kva=0.700005 pf=1.0 Phases=1
New Load.load_p6ulv13202_1 conn=wye bus1=p6ulv13202.1 kV=0.12 Vminpu=0.8 Vmaxpu=1.2 model=1 kva=0.8600100000000002 pf=1.0 Phases=1
New Load.load_p6ulv13202_2 conn=wye bus1=p6ulv13202.2 kV=0.12 Vminpu=0.8 Vmaxpu=1.2 model=1 kva=0.8600100000000002 pf=1.0 Phases=1
New Load.load_p6ulv13203_1 conn=wye bus1=p6ulv13203.1 kV=0.12 Vminpu=0.8 Vmaxpu=1.2 model=1 kva=0.78501 pf=1.0 Phases=1
New Load.load_p6ulv13204_1 conn=wye bus1=p6ulv13204.1 kV=0.12 Vminpu=0.8 Vmaxpu=1.2 model=1 kva=0.705005 pf=1.0 Phases=1
New Load.load_p6ulv13204_2 conn=wye bus1=p6ulv13204.2 kV=0.12 Vminpu=0.8 Vmaxpu=1.2 model=1 kva=0.705005 pf=1.0 Phases=1
New Load.load_p6ulv13205_1 conn=wye bus1=p6ulv13205.1 kV=0.12 Vminpu=0.8 Vmaxpu=1.2 model=1 kva=0.630005 pf=1.0 Phases=1
New Load.load_p6ulv13206_1 conn=wye bus1=p6ulv13206.1 kV=0.12 Vminpu=0.8 Vmaxpu=1.2 model=1 kva=0.87501 pf=1.0 Phases=1
New Load.load_p6ulv13206_2 conn=wye bus1=p6ulv13206.2 kV=0.12 Vminpu=0.8 Vmaxpu=1.2 model=1 kva=0.87501 pf=1.0 Phases=1
New Load.load_p6ulv13207_1 conn=wye bus1=p6ulv13207.1 kV=0.12 Vminpu=0.8 Vmaxpu=1.2 model=1 kva=0.715005 pf=1.0 Phases=1
New Load.load_p6ulv13208_1 conn=wye bus1=p6ulv13208.1 kV=0.12 Vminpu=0.8 Vmaxpu=1.2 model=1 kva=0.78001 pf=1.0 Phases=1
New Load.load_p6ulv13208_2 conn=wye bus1=p6ulv13208.2 kV=0.12 Vminpu=0.8 Vmaxpu=1.2 model=1 kva=0.78001 pf=1.0 Phases=1
New Load.load_p6ulv13209_1 conn=wye bus1=p6ulv13209.1 kV=0.12 Vminpu=0.8 Vmaxpu=1.2 model=1 kva=0.85001 pf=1.0 Phases=1
New Load.load_p6ulv13209_2 conn=wye bus1=p6ulv13209.2 kV=0.12 Vminpu=0.8 Vmaxpu=1.2 model=1 kva=0.85001 pf=1.0 Phases=1
New Load.load_p6ulv13210_2 conn=wye bus1=p6ulv13210.2 kV=0.12 Vminpu=0.8 Vmaxpu=1.2 model=1 kva=1.01001 pf=1.0 Phases=1
New Load.load_p6ulv13211_1 conn=wye bus1=p6ulv13211.1 kV=0.12 Vminpu=0.8 Vmaxpu=1.2 model=1 kva=1.07001 pf=1.0 Phases=1
New Load.load_p6ulv13212_1 conn=wye bus1=p6ulv13212.1 kV=0.12 Vminpu=0.8 Vmaxpu=1.2 model=1 kva=0.94501 pf=1.0 Phases=1
New Load.load_p6ulv13212_2 conn=wye bus1=p6ulv13212.2 kV=0.12 Vminpu=0.8 Vmaxpu=1.2 model=1 kva=0.94501 pf=1.0 Phases=1
New Load.load_p6ulv13213_1 conn=wye bus1=p6ulv13213.1 kV=0.12 Vminpu=0.8 Vmaxpu=1.2 model=1 kva=0.84501 pf=1.0 Phases=1
New Load.load_p6ulv13213_2 conn=wye bus1=p6ulv13213.2 kV=0.12 Vminpu=0.8 Vmaxpu=1.2 model=1 kva=0.84501 pf=1.0 Phases=1
New Load.load_p6ulv13214_1 conn=wye bus1=p6ulv13214.1 kV=0.12 Vminpu=0.8 Vmaxpu=1.2 model=1 kva=0.84001 pf=1.0 Phases=1
New Load.load_p6ulv13214_2 conn=wye bus1=p6ulv13214.2 kV=0.12 Vminpu=0.8 Vmaxpu=1.2 model=1 kva=0.84001 pf=1.0 Phases=1
New Load.load_p6ulv13215_1 conn=wye bus1=p6ulv13215.1 kV=0.12 Vminpu=0.8 Vmaxpu=1.2 model=1 kva=0.88001 pf=1.0 Phases=1
New Load.load_p6ulv13215_2 conn=wye bus1=p6ulv13215.2 kV=0.12 Vminpu=0.8 Vmaxpu=1.2 model=1 kva=0.88001 pf=1.0 Phases=1
New Load.load_p6ulv13216_1 conn=wye bus1=p6ulv13216.1 kV=0.12 Vminpu=0.8 Vmaxpu=1.2 model=1 kva=0.88001 pf=1.0 Phases=1
New Load.load_p6ulv13216_2 conn=wye bus1=p6ulv13216.2 kV=0.12 Vminpu=0.8 Vmaxpu=1.2 model=1 kva=0.88001 pf=1.0 Phases=1
New Load.load_p6ulv13217_1 conn=wye bus1=p6ulv13217.1 kV=0.12 Vminpu=0.8 Vmaxpu=1.2 model=1 kva=0.665005 pf=1.0 Phases=1
New Load.load_p6ulv13219_1 conn=wye bus1=p6ulv13219.1 kV=0.12 Vminpu=0.8 Vmaxpu=1.2 model=1 kva=0.685005 pf=1.0 Phases=1
New Load.load_p6ulv13220_2 conn=wye bus1=p6ulv13220.2 kV=0.12 Vminpu=0.8 Vmaxpu=1.2 model=1 kva=0.83001 pf=1.0 Phases=1
New Load.load_p6ulv13221_2 conn=wye bus1=p6ulv13221.2 kV=0.12 Vminpu=0.8 Vmaxpu=1.2 model=1 kva=0.675005 pf=1.0 Phases=1
New Load.load_p6ulv13222_1 conn=wye bus1=p6ulv13222.1 kV=0.12 Vminpu=0.8 Vmaxpu=1.2 model=1 kva=0.75501 pf=1.0 Phases=1
New Load.load_p6ulv13222_2 conn=wye bus1=p6ulv13222.2 kV=0.12 Vminpu=0.8 Vmaxpu=1.2 model=1 kva=0.75501 pf=1.0 Phases=1
New Load.load_p6ulv13223_1 conn=wye bus1=p6ulv13223.1 kV=0.12 Vminpu=0.8 Vmaxpu=1.2 model=1 kva=1.02501 pf=1.0 Phases=1
New Load.load_p6ulv13223_2 conn=wye bus1=p6ulv13223.2 kV=0.12 Vminpu=0.8 Vmaxpu=1.2 model=1 kva=1.02501 pf=1.0 Phases=1
New Load.load_p6ulv13224_1 conn=wye bus1=p6ulv13224.1 kV=0.12 Vminpu=0.8 Vmaxpu=1.2 model=1 kva=1.09001 pf=1.0 Phases=1
New Load.load_p6ulv13224_2 conn=wye bus1=p6ulv13224.2 kV=0.12 Vminpu=0.8 Vmaxpu=1.2 model=1 kva=1.09001 pf=1.0 Phases=1
New Load.load_p6ulv13225_1 conn=wye bus1=p6ulv13225.1 kV=0.12 Vminpu=0.8 Vmaxpu=1.2 model=1 kva=0.730005 pf=1.0 Phases=1
New Load.load_p6ulv13227_1 conn=wye bus1=p6ulv13227.1 kV=0.12 Vminpu=0.8 Vmaxpu=1.2 model=1 kva=1.00001 pf=1.0 Phases=1
New Load.load_p6ulv13227_2 conn=wye bus1=p6ulv13227.2 kV=0.12 Vminpu=0.8 Vmaxpu=1.2 model=1 kva=1.00001 pf=1.0 Phases=1
New Load.load_p6ulv13228_2 conn=wye bus1=p6ulv13228.2 kV=0.12 Vminpu=0.8 Vmaxpu=1.2 model=1 kva=0.4550045 pf=1.0 Phases=1
New Load.load_p6ulv13229_2 conn=wye bus1=p6ulv13229.2 kV=0.12 Vminpu=0.8 Vmaxpu=1.2 model=1 kva=0.690005 pf=1.0 Phases=1
New Load.load_p6ulv13230_1 conn=wye bus1=p6ulv13230.1 kV=0.12 Vminpu=0.8 Vmaxpu=1.2 model=1 kva=0.610005 pf=1.0 Phases=1
New Load.load_p6ulv13230_2 conn=wye bus1=p6ulv13230.2 kV=0.12 Vminpu=0.8 Vmaxpu=1.2 model=1 kva=0.610005 pf=1.0 Phases=1
New Load.load_p6ulv13231_1 conn=wye bus1=p6ulv13231.1 kV=0.12 Vminpu=0.8 Vmaxpu=1.2 model=1 kva=0.685005 pf=1.0 Phases=1
New Load.load_p6ulv13231_2 conn=wye bus1=p6ulv13231.2 kV=0.12 Vminpu=0.8 Vmaxpu=1.2 model=1 kva=0.685005 pf=1.0 Phases=1
New Load.load_p6ulv13232_1 conn=wye bus1=p6ulv13232.1 kV=0.12 Vminpu=0.8 Vmaxpu=1.2 model=1 kva=0.620005 pf=1.0 Phases=1
New Load.load_p6ulv13233_1 conn=wye bus1=p6ulv13233.1 kV=0.12 Vminpu=0.8 Vmaxpu=1.2 model=1 kva=0.700005 pf=1.0 Phases=1
New Load.load_p6ulv13234_2 conn=wye bus1=p6ulv13234.2 kV=0.12 Vminpu=0.8 Vmaxpu=1.2 model=1 kva=0.84501 pf=1.0 Phases=1
New Load.load_p6ulv13235_1 conn=wye bus1=p6ulv13235.1 kV=0.12 Vminpu=0.8 Vmaxpu=1.2 model=1 kva=0.700005 pf=1.0 Phases=1
New Load.load_p6ulv13235_2 conn=wye bus1=p6ulv13235.2 kV=0.12 Vminpu=0.8 Vmaxpu=1.2 model=1 kva=0.700005 pf=1.0 Phases=1
New Load.load_p6ulv13236_1 conn=wye bus1=p6ulv13236.1 kV=0.12 Vminpu=0.8 Vmaxpu=1.2 model=1 kva=0.82001 pf=1.0 Phases=1
New Load.load_p6ulv13236_2 conn=wye bus1=p6ulv13236.2 kV=0.12 Vminpu=0.8 Vmaxpu=1.2 model=1 kva=0.82001 pf=1.0 Phases=1
New Load.load_p6ulv13237_1 conn=wye bus1=p6ulv13237.1 kV=0.12 Vminpu=0.8 Vmaxpu=1.2 model=1 kva=0.75501 pf=1.0 Phases=1
New Load.load_p6ulv13238_1 conn=wye bus1=p6ulv13238.1 kV=0.12 Vminpu=0.8 Vmaxpu=1.2 model=1 kva=0.480005 pf=1.0 Phases=1
New Load.load_p6ulv13239_1 conn=wye bus1=p6ulv13239.1 kV=0.12 Vminpu=0.8 Vmaxpu=1.2 model=1 kva=0.720005 pf=1.0 Phases=1
New Load.load_p6ulv13240_2 conn=wye bus1=p6ulv13240.2 kV=0.12 Vminpu=0.8 Vmaxpu=1.2 model=1 kva=0.705005 pf=1.0 Phases=1
New Load.load_p6ulv13241_1 conn=wye bus1=p6ulv13241.1 kV=0.12 Vminpu=0.8 Vmaxpu=1.2 model=1 kva=1.310015 pf=1.0 Phases=1
New Load.load_p6ulv13241_2 conn=wye bus1=p6ulv13241.2 kV=0.12 Vminpu=0.8 Vmaxpu=1.2 model=1 kva=1.310015 pf=1.0 Phases=1
New Load.load_p6ulv13242_1 conn=wye bus1=p6ulv13242.1 kV=0.12 Vminpu=0.8 Vmaxpu=1.2 model=1 kva=0.82501 pf=1.0 Phases=1
New Load.load_p6ulv13242_2 conn=wye bus1=p6ulv13242.2 kV=0.12 Vminpu=0.8 Vmaxpu=1.2 model=1 kva=0.82501 pf=1.0 Phases=1