New Load.motor_load_p6ulv7111_1 conn=wye bus1=p6ulv7111.1 kV=0.12 kW=1.1031364181207375 kvar=0.22062728362414752 Phases=1 Vminpu=0.0 Vmaxpu=1.2 model=1
New Load.motor_load_p6ulv7113_1 conn=wye bus1=p6ulv7113.1 kV=0.12 kW=1.1127067892824356 kvar=0.22254135785648713 Phases=1 Vminpu=0.0 Vmaxpu=1.2 model=1
New Load.motor_load_p6ulv7114 conn=wye bus1=p6ulv7114.1.2.3 kV=0.48 kW=1.2350426916758208 kvar=0.24700853833516417 Phases=3 Vminpu=0.0 Vmaxpu=1.2 model=1
New Load.motor_load_p6ulv8115 conn=wye bus1=p6ulv8115.1.2.3 kV=0.48 kW=1.1299889098856764 kvar=0.22599778197713527 Phases=3 Vminpu=0.0 Vmaxpu=1.2 model=1
New Load.motor_load_p6ulv8118 conn=wye bus1=p6ulv8118.1.2.3 kV=0.48 kW=1.0741249172896143 kvar=0.2148249834579229 Phases=3 Vminpu=0.0 Vmaxpu=1.2 model=1
New Load.motor_load_p6ulv8119_2 conn=wye bus1=p6ulv8119.2 kV=0.12 kW=1.1149399611408557 kvar=0.22298799222817114 Phases=1 Vminpu=0.0 Vmaxpu=1.2 model=1
New Load.motor_load_p6ulv8121 conn=wye bus1=p6ulv8121.1.2.3 kV=0.48 kW=1.1919854603458309 kvar=0.23839709206916618 Phases=3 Vminpu=0.0 Vmaxpu=1.2 model=1
New Load.motor_load_p6ulv8122_2 conn=wye bus1=p6ulv8122.2 kV=0.12 kW=1.223752557240382 kvar=0.2447505114480764 Phases=1 Vminpu=0.0 Vmaxpu=1.2 model=1
New Load.motor_load_p6ulv8126 conn=wye bus1=p6ulv8126.1.2.3 kV=0.48 kW=1.1667946997618008 kvar=0.23335893995236018 Phases=3 Vminpu=0.0 Vmaxpu=1.2 model=1
New Load.motor_load_p6ulv8127_1 conn=wye bus1=p6ulv8127.1 kV=0.12 kW=1.0728759734497009 kvar=0.21457519468994019 Phases=1 Vminpu=0.0 Vmaxpu=1.2 model=1
New Load.motor_load_p6ulv8128 conn=wye bus1=p6ulv8128.1.2.3 kV=0.48 kW=1.150257612137585 kvar=0.230051522427517 Phases=3 Vminpu=0.0 Vmaxpu=1.2 model=1
New Load.motor_load_p6ulv8129_1 conn=wye bus1=p6ulv8129.1 kV=0.12 kW=1.0780461544272504 kvar=0.2156092308854501 Phases=1 Vminpu=0.0 Vmaxpu=1.2 model=1
New Load.motor_load_p6ulv8129_2 conn=wye bus1=p6ulv8129.2 kV=0.12 kW=1.1137285831663157 kvar=0.22274571663326315 Phases=1 Vminpu=0.0 Vmaxpu=1.2 model=1
New Load.motor_load_p6ulv8130_1 conn=wye bus1=p6ulv8130.1 kV=0.12 kW=1.0522641120623044 kvar=0.21045282241246088 Phases=1 Vminpu=0.0 Vmaxpu=1.2 model=1
New Load.motor_load_p6ulv8131_2 conn=wye bus1=p6ulv8131.2 kV=0.12 kW=1.1072683747413952 kvar=0.22145367494827906 Phases=1 Vminpu=0.0 Vmaxpu=1.2 model=1
New Load.motor_load_p6ulv8132_1 conn=wye bus1=p6ulv8132.1 kV=0.12 kW=1.1001347399513641 kvar=0.22002694799027284 Phases=1 Vminpu=0.0 Vmaxpu=1.2 model=1
New Load.motor_load_p6ulv8134_1 conn=wye bus1=p6ulv8134.1 kV=0.12 kW=1.185306552332809 kvar=0.23706131046656181 Phases=1 Vminpu=0.0 Vmaxpu=1.2 model=1
New Load.motor_load_p6ulv8136_2 conn=wye bus1=p6ulv8136.2 kV=0.12 kW=1.1408218173309632 kvar=0.22816436346619265 Phases=1 Vminpu=0.0 Vmaxpu=1.2 model=1
New Load.motor_load_p6ulv8138_1 conn=wye bus1=p6ulv8138.1 kV=0.12 kW=1.0895274152498604 kvar=0.2179054830499721 Phases=1 Vminpu=0.0 Vmaxpu=1.2 model=1
New Load.motor_load_p6ulv8138_2 conn=wye bus1=p6ulv8138.2 kV=0.12 kW=1.2361837640471742 kvar=0.24723675280943486 Phases=1 Vminpu=0.0 Vmaxpu=1.2 model=1
New Load.motor_load_p6ulv8140_1 conn=wye bus1=p6ulv8140.1 kV=0.12 kW=1.22429255020161 kvar=0.244858510040322 Phases=1 Vminpu=0.0 Vmaxpu=1.2 model=1
New Load.motor_load_p6ulv8143_1 conn=wye bus1=p6ulv8143.1 kV=0.12 kW=1.2565553916690186 kvar=0.25131107833380373 Phases=1 Vminpu=0.0 Vmaxpu=1.2 model=1
New Load.motor_load_p6ulv8143_2 conn=wye bus1=p6ulv8143.2 kV=0.12 kW=1.1729092005716648 kvar=0.23458184011433297 Phases=1 Vminpu=0.0 Vmaxpu=1.2 model=1
New Load.motor_load_p6ulv8146_2 conn=wye bus1=p6ulv8146.2 kV=0.12 kW=1.2018943188319429 kvar=0.2403788637663886 Phases=1 Vminpu=0.0 Vmaxpu=1.2 model=1
New Load.motor_load_p6ulv8147_2 conn=wye bus1=p6ulv8147.2 kV=0.12 kW=1.1928464755453199 kvar=0.238569295109064 Phases=1 Vminpu=0.0 Vmaxpu=1.2 model=1
New Load.motor_load_p6ulv8149_1 conn=wye bus1=p6ulv8149.1 kV=0.12 kW=1.2361366807746303 kvar=0.2472273361549261 Phases=1 Vminpu=0.0 Vmaxpu=1.2 model=1
New Load.motor_load_p6ulv8150_1 conn=wye bus1=p6ulv8150.1 kV=0.12 kW=1.0670659238186804 kvar=0.21341318476373608 Phases=1 Vminpu=0.0 Vmaxpu=1.2 model=1
New Load.motor_load_p6ulv8151_2 conn=wye bus1=p6ulv8151.2 kV=0.12 kW=1.1196503931576698 kvar=0.22393007863153397 Phases=1 Vminpu=0.0 Vmaxpu=1.2 model=1
New Load.motor_load_p6ulv8152_1 conn=wye bus1=p6ulv8152.1 kV=0.12 kW=1.1254603395836134 kvar=0.22509206791672268 Phases=1 Vminpu=0.0 Vmaxpu=1.2 model=1
New Load.motor_load_p6ulv8152_2 conn=wye bus1=p6ulv8152.2 kV=0.12 kW=1.0547182092998866 kvar=0.21094364185997733 Phases=1 Vminpu=0.0 Vmaxpu=1.2 model=1
New Load.motor_load_p6ulv8153_1 conn=wye bus1=p6ulv8153.1 kV=0.12 kW=1.2159469599787898 kvar=0.24318939199575795 Phases=1 Vminpu=0.0 Vmaxpu=1.2 model=1
New Load.motor_load_p6ulv8153_2 conn=wye bus1=p6ulv8153.2 kV=0.12 kW=1.2406655535310207 kvar=0.24813311070620414 Phases=1 Vminpu=0.0 Vmaxpu=1.2 model=1
New Load.motor_load_p6ulv8154_2 conn=wye bus1=p6ulv8154.2 kV=0.12 kW=1.0734468004444198 kvar=0.21468936008888395 Phases=1 Vminpu=0.0 Vmaxpu=1.2 model=1
New Load.motor_load_p6ulv8155_1 conn=wye bus1=p6ulv8155.1 kV=0.12 kW=1.2357232493997616 kvar=0.24714464987995233 Phases=1 Vminpu=0.0 Vmaxpu=1.2 model=1
New Load.motor_load_p6ulv8155_2 conn=wye bus1=p6ulv8155.2 kV=0.12 kW=1.1295118523071948 kvar=0.22590237046143896 Phases=1 Vminpu=0.0 Vmaxpu=1.2 model=1
New Load.motor_load_p6ulv8161_1 conn=wye bus1=p6ulv8161.1 kV=0.12 kW=1.1053687646075536 kvar=0.22107375292151074 Phases=1 Vminpu=0.0 Vmaxpu=1.2 model=1
New Load.motor_load_p6ulv8163_2 conn=wye bus1=p6ulv8163.2 kV=0.12 kW=1.192473127690632 kvar=0.2384946255381264 Phases=1 Vminpu=0.0 Vmaxpu=1.2 model=1
New Load.motor_load_p6ulv8165_1 conn=wye bus1=p6ulv8165.1 kV=0.12 kW=1.1684859316680303 kvar=0.23369718633360606 Phases=1 Vminpu=0.0 Vmaxpu=1.2 model=1
New Load.motor_load_p6ulv8166_2 conn=wye bus1=p6ulv8166.2 kV=0.12 kW=1.2015689644159888 kvar=0.24031379288319776 Phases=1 Vminpu=0.0 Vmaxpu=1.2 model=1
New Load.motor_load_p6ulv8167_1 conn=wye bus1=p6ulv8167.1 kV=0.12 kW=1.168339888134623 kvar=0.2336679776269246 Phases=1 Vminpu=0.0 Vmaxpu=1.2 model=1
New Load.motor_load_p6ulv8169_2 conn=wye bus1=p6ulv8169.2 kV=0.12 kW=1.1720696338213805 kvar=0.2344139267642761 Phases=1 Vminpu=0.0 Vmaxpu=1.2 model=1
New Load.motor_load_p6ulv8170_1 conn=wye bus1=p6ulv8170.1 kV=0.12 kW=1.1773838102424206 kvar=0.2354767620484841 Phases=1 Vminpu=0.0 Vmaxpu=1.2 model=1
New Load.motor_load_p6ulv8170_2 conn=wye bus1=p6ulv8170.2 kV=0.12 kW=1.107243888035761 kvar=0.2214487776071522 Phases=1 Vminpu=0.0 Vmaxpu=1.2 model=1
New Load.motor_load_p6ulv8171_1 conn=wye bus1=p6ulv8171.1 kV=0.12 kW=1.1302694351925742 kvar=0.22605388703851484 Phases=1 Vminpu=0.0 Vmaxpu=1.2 model=1
New Load.motor_load_p6ulv8171_2 conn=wye bus1=p6ulv8171.2 kV=0.12 kW=1.061728600691592 kvar=0.21234572013831843 Phases=1 Vminpu=0.0 Vmaxpu=1.2 model=1
New Load.motor_load_p6ulv8172_2 conn=wye bus1=p6ulv8172.2 kV=0.12 kW=1.0787354968322251 kvar=0.21574709936644504 Phases=1 Vminpu=0.0 Vmaxpu=1.2 model=1
New Load.motor_load_p6ulv8173_1 conn=wye bus1=p6ulv8173.1 kV=0.12 kW=1.1603849497401024 kvar=0.2320769899480205 Phases=1 Vminpu=0.0 Vmaxpu=1.2 model=1
New Load.motor_load_p6ulv8174_1 conn=wye bus1=p6ulv8174.1 kV=0.12 kW=1.161913507475882 kvar=0.2323827014951764 Phases=1 Vminpu=0.0 Vmaxpu=1.2 model=1
New Load.motor_load_p6ulv8175_1 conn=wye bus1=p6ulv8175.1 kV=0.12 kW=1.110315713807403 kvar=0.2220631427614806 Phases=1 Vminpu=0.0 Vmaxpu=1.2 model=1
New Load.motor_load_p6ulv8175_2 conn=wye bus1=p6ulv8175.2 kV=0.12 kW=1.1714663541972625 kvar=0.2342932708394525 Phases=1 Vminpu=0.0 Vmaxpu=1.2 model=1
New Load.motor_load_p6ulv8178_2 conn=wye bus1=p6ulv8178.2 kV=0.12 kW=1.1125569407177545 kvar=0.2225113881435509 Phases=1 Vminpu=0.0 Vmaxpu=1.2 model=1
New Load.motor_load_p6ulv8179_2 conn=wye bus1=p6ulv8179.2 kV=0.12 kW=1.159964164107401 kvar=0.2319928328214802 Phases=1 Vminpu=0.0 Vmaxpu=1.2 model=1
New Load.motor_load_p6ulv8180_2 conn=wye bus1=p6ulv8180.2 kV=0.12 kW=1.2009779311181743 kvar=0.24019558622363488 Phases=1 Vminpu=0.0 Vmaxpu=1.2 model=1
New Load.motor_load_p6ulv8183_2 conn=wye bus1=p6ulv8183.2 kV=0.12 kW=1.1403212411861365 kvar=0.22806424823722732 Phases=1 Vminpu=0.0 Vmaxpu=1.2 model=1
New Load.motor_load_p6ulv8186_1 conn=wye bus1=p6ulv8186.1 kV=0.12 kW=1.2325108109819054 kvar=0.2465021621963811 Phases=1 Vminpu=0.0 Vmaxpu=1.2 model=1
New Load.motor_load_p6ulv8186_2 conn=wye bus1=p6ulv8186.2 kV=0.12 kW=1.1911741846233634 kvar=0.2382348369246727 Phases=1 Vminpu=0.0 Vmaxpu=1.2 model=1
New Load.motor_load_p6ulv8187_2 conn=wye bus1=p6ulv8187.2 kV=0.12 kW=1.1570709429080475 kvar=0.2314141885816095 Phases=1 Vminpu=0.0 Vmaxpu=1.2 model=1
New Load.motor_load_p6ulv8188_1 conn=wye bus1=p6ulv8188.1 kV=0.12 kW=1.1331402998511853 kvar=0.22662805997023705 Phases=1 Vminpu=0.0 Vmaxpu=1.2 model=1
New Load.motor_load_p6ulv8188_2 conn=wye bus1=p6ulv8188.2 kV=0.12 kW=1.1367554267154818 kvar=0.22735108534309637 Phases=1 Vminpu=0.0 Vmaxpu=1.2 model=1
New Load.motor_load_p6ulv8190_1 conn=wye bus1=p6ulv8190.1 kV=0.12 kW=1.1897142748788219 kvar=0.2379428549757644 Phases=1 Vminpu=0.0 Vmaxpu=1.2 model=1
New Load.motor_load_p6ulv8191_1 conn=wye bus1=p6ulv8191.1 kV=0.12 kW=1.0968759371587922 kvar=0.21937518743175843 Phases=1 Vminpu=0.0 Vmaxpu=1.2 model=1
New Load.motor_load_p6ulv8194_1 conn=wye bus1=p6ulv8194.1 kV=0.12 kW=1.1132464978821723 kvar=0.22264929957643448 Phases=1 Vminpu=0.0 Vmaxpu=1.2 model=1
New Load.motor_load_p6ulv8196_1 conn=wye bus1=p6ulv8196.1 kV=0.12 kW=1.235623399127301 kvar=0.2471246798254602 Phases=1 Vminpu=0.0 Vmaxpu=1.2 model=1
New Load.motor_load_p6ulv8196_2 conn=wye bus1=p6ulv8196.2 kV=0.12 kW=1.119522154937678 kvar=0.2239044309875356 Phases=1 Vminpu=0.0 Vmaxpu=1.2 model=1
New Load.motor_load_p6ulv11963_1 conn=wye bus1=p6ulv11963.1 kV=0.12 kW=1.133069873187015 kvar=0.22661397463740302 Phases=1 Vminpu=0.0 Vmaxpu=1.2 model=1
New Load.motor_load_p6ulv13099_2 conn=wye bus1=p6ulv13099.2 kV=0.12 kW=1.1217504646568026 kvar=0.22435009293136055 Phases=1 Vminpu=0.0 Vmaxpu=1.2 model=1
New Load.motor_load_p6ulv13104_1 conn=wye bus1=p6ulv13104.1 kV=0.12 kW=1.1882797012965316 kvar=0.23765594025930634 Phases=1 Vminpu=0.0 Vmaxpu=1.2 model=1
New Load.motor_load_p6ulv13105_1 conn=wye bus1=p6ulv13105.1 kV=0.12 kW=1.0654311947617068 kvar=0.21308623895234136 Phases=1 Vminpu=0.0 Vmaxpu=1.2 model=1
New Load.motor_load_p6ulv13106_2 conn=wye bus1=p6ulv13106.2 kV=0.12 kW=1.1813389492788617 kvar=0.23626778985577235 Phases=1 Vminpu=0.0 Vmaxpu=1.2 model=1
New Load.motor_load_p6ulv13107_2 conn=wye bus1=p6ulv13107.2 kV=0.12 kW=1.1434261155068446 kvar=0.22868522310136893 Phases=1 Vminpu=0.0 Vmaxpu=1.2 model=1
New Load.motor_load_p6ulv13121_1 conn=wye bus1=p6ulv13121.1 kV=0.12 kW=1.1053924924088114 kvar=0.2210784984817623 Phases=1 Vminpu=0.0 Vmaxpu=1.2 model=1
New Load.motor_load_p6ulv13123_1 conn=wye bus1=p6ulv13123.1 kV=0.12 kW=1.2279651709064188 kvar=0.24559303418128375 Phases=1 Vminpu=0.0 Vmaxpu=1.2 model=1
New Load.motor_load_p6ulv13125_2 conn=wye bus1=p6ulv13125.2 kV=0.12 kW=1.122180452089367 kvar=0.2244360904178734 Phases=1 Vminpu=0.0 Vmaxpu=1.2 model=1
New Load.motor_load_p6ulv13126_1 conn=wye bus1=p6ulv13126.1 kV=0.12 kW=1.1454847623864433 kvar=0.22909695247728867 Phases=1 Vminpu=0.0 Vmaxpu=1.2 model=1
New Load.motor_load_p6ulv13143_1 conn=wye bus1=p6ulv13143.1 kV=0.12 kW=1.1833615602642984 kvar=0.23667231205285968 Phases=1 Vminpu=0.0 Vmaxpu=1.2 model=1
New Load.motor_load_p6ulv13143_2 conn=wye bus1=p6ulv13143.2 kV=0.12 kW=1.1513153935190772 kvar=0.23026307870381546 Phases=1 Vminpu=0.0 Vmaxpu=1.2 model=1
New Load.motor_load_p6ulv13144_2 conn=wye bus1=p6ulv13144.2 kV=0.12 kW=1.1747009927586591 kvar=0.23494019855173184 Phases=1 Vminpu=0.0 Vmaxpu=1.2 model=1
New Load.motor_load_p6ulv13147_2 conn=wye bus1=p6ulv13147.2 kV=0.12 kW=1.2546732938269545 kvar=0.2509346587653909 Phases=1 Vminpu=0.0 Vmaxpu=1.2 model=1
New Load.motor_load_p6ulv13148_1 conn=wye bus1=p6ulv13148.1 kV=0.12 kW=1.073354542129986 kvar=0.2146709084259972 Phases=1 Vminpu=0.0 Vmaxpu=1.2 model=1
New Load.motor_load_p6ulv13149_1 conn=wye bus1=p6ulv13149.1 kV=0.12 kW=1.1515332787313124 kvar=0.2303066557462625 Phases=1 Vminpu=0.0 Vmaxpu=1.2 model=1
New Load.motor_load_p6ulv13149_2 conn=wye bus1=p6ulv13149.2 kV=0.12 kW=1.1531182537535059 kvar=0.23062365075070118 Phases=1 Vminpu=0.0 Vmaxpu=1.2 model=1
New Load.motor_load_p6ulv13151_2 conn=wye bus1=p6ulv13151.2 kV=0.12 kW=1.052945762203399 kvar=0.21058915244067983 Phases=1 Vminpu=0.0 Vmaxpu=1.2 model=1
New Load.motor_load_p6ulv13162_1 conn=wye bus1=p6ulv13162.1 kV=0.12 kW=1.129091071792272 kvar=0.2258182143584544 Phases=1 Vminpu=0.0 Vmaxpu=1.2 model=1
New Load.motor_load_p6ulv13163_2 conn=wye bus1=p6ulv13163.2 kV=0.12 kW=1.2257611279097098 kvar=0.24515222558194197 Phases=1 Vminpu=0.0 Vmaxpu=1.2 model=1
New Load.motor_load_p6ulv13164_2 conn=wye bus1=p6ulv13164.2 kV=0.12 kW=1.1651149233208065 kvar=0.2330229846641613 Phases=1 Vminpu=0.0 Vmaxpu=1.2 model=1
New Load.motor_load_p6ulv13165_1 conn=wye bus1=p6ulv13165.1 kV=0.12 kW=1.1944528144244149 kvar=0.23889056288488297 Phases=1 Vminpu=0.0 Vmaxpu=1.2 model=1
New Load.motor_load_p6ulv13169_1 conn=wye bus1=p6ulv13169.1 kV=0.12 kW=1.1831476007770305 kvar=0.23662952015540611 Phases=1 Vminpu=0.0 Vmaxpu=1.2 model=1
New Load.motor_load_p6ulv13185_1 conn=wye bus1=p6ulv13185.1 kV=0.12 kW=1.2612023765843408 kvar=0.25224047531686816 Phases=1 Vminpu=0.0 Vmaxpu=1.2 model=1
New Load.motor_load_p6ulv13186_2 conn=wye bus1=p6ulv13186.2 kV=0.12 kW=1.1977105618437545 kvar=0.2395421123687509 Phases=1 Vminpu=0.0 Vmaxpu=1.2 model=1
New Load.motor_load_p6ulv13187_1 conn=wye bus1=p6ulv13187.1 kV=0.12 kW=1.2491827983300348 kvar=0.24983655966600696 Phases=1 Vminpu=0.0 Vmaxpu=1.2 model=1
New Load.motor_load_p6ulv13187_2 conn=wye bus1=p6ulv13187.2 kV=0.12 kW=1.1082828606246178 kvar=0.22165657212492357 Phases=1 Vminpu=0.0 Vmaxpu=1.2 model=1
New Load.motor_load_p6ulv13188_2 conn=wye bus1=p6ulv13188.2 kV=0.12 kW=1.141677196442683 kvar=0.2283354392885366 Phases=1 Vminpu=0.0 Vmaxpu=1.2 model=1
New Load.motor_load_p6ulv13190_1 conn=wye bus1=p6ulv13190.1 kV=0.12 kW=1.1190124298913469 kvar=0.22380248597826938 Phases=1 Vminpu=0.0 Vmaxpu=1.2 model=1
New Load.motor_load_p6ulv13190_2 conn=wye bus1=p6ulv13190.2 kV=0.12 kW=1.1258539064956241 kvar=0.22517078129912482 Phases=1 Vminpu=0.0 Vmaxpu=1.2 model=1
New Load.motor_load_p6ulv13195_2 conn=wye bus1=p6ulv13195.2 kV=0.12 kW=1.1546405492436764 kvar=0.2309281098487353 Phases=1 Vminpu=0.0 Vmaxpu=1.2 model=1
New Load.motor_load_p6ulv13199_1 conn=wye bus1=p6ulv13199.1 kV=0.12 kW=1.129319939795218 kvar=0.2258639879590436 Phases=1 Vminpu=0.0 Vmaxpu=1.2 model=1
New Load.motor_load_p6ulv13199_2 conn=wye bus1=p6ulv13199.2 kV=0.12 kW=1.2336912418484136 kvar=0.24673824836968272 Phases=1 Vminpu=0.0 Vmaxpu=1.2 model=1
New Load.motor_load_p6ulv13200_2 conn=wye bus1=p6ulv13200.2 kV=0.12 kW=1.2485262382996543 kvar=0.24970524765993085 Phases=1 Vminpu=0.0 Vmaxpu=1.2 model=1
New Load.motor_load_p6ulv13203_2 conn=wye bus1=p6ulv13203.2 kV=0.12 kW=1.1274293197761915 kvar=0.2254858639552383 Phases=1 Vminpu=0.0 Vmaxpu=1.2 model=1
New Load.motor_load_p6ulv13205_2 conn=wye bus1=p6ulv13205.2 kV=0.12 kW=1.2460062844834008 kvar=0.24920125689668016 Phases=1 Vminpu=0.0 Vmaxpu=1.2 model=1
New Load.motor_load_p6ulv13207_2 conn=wye bus1=p6ulv13207.2 kV=0.12 kW=1.2013559713120536 kvar=0.24027119426241073 Phases=1 Vminpu=0.0 Vmaxpu=1.2 model=1
New Load.motor_load_p6ulv13210_1 conn=wye bus1=p6ulv13210.1 kV=0.12 kW=1.2285348317218492 kvar=0.24570696634436984 Phases=1 Vminpu=0.0 Vmaxpu=1.2 model=1
New Load.motor_load_p6ulv13211_2 conn=wye bus1=p6ulv13211.2 kV=0.12 kW=1.1567693002647825 kvar=0.23135386005295652 Phases=1 Vminpu=0.0 Vmaxpu=1.2 model=1
New Load.motor_load_p6ulv13217_2 conn=wye bus1=p6ulv13217.2 kV=0.12 kW=1.1538092183838589 kvar=0.23076184367677177 Phases=1 Vminpu=0.0 Vmaxpu=1.2 model=1
New Load.motor_load_p6ulv13218_1 conn=wye bus1=p6ulv13218.1 kV=0.12 kW=1.157661755593221 kvar=0.2315323511186442 Phases=1 Vminpu=0.0 Vmaxpu=1.2 model=1
New Load.motor_load_p6ulv13218_2 conn=wye bus1=p6ulv13218.2 kV=0.12 kW=1.146197073372732 kvar=0.22923941467454642 Phases=1 Vminpu=0.0 Vmaxpu=1.2 model=1
New Load.motor_load_p6ulv13219_2 conn=wye bus1=p6ulv13219.2 kV=0.12 kW=1.1252225590626568 kvar=0.22504451181253138 Phases=1 Vminpu=0.0 Vmaxpu=1.2 model=1
New Load.motor_load_p6ulv13220_1 conn=wye bus1=p6ulv13220.1 kV=0.12 kW=1.1808869018667907 kvar=0.23617738037335814 Phases=1 Vminpu=0.0 Vmaxpu=1.2 model=1
New Load.motor_load_p6ulv13221_1 conn=wye bus1=p6ulv13221.1 kV=0.12 kW=1.2528988544067465 kvar=0.2505797708813493 Phases=1 Vminpu=0.0 Vmaxpu=1.2 model=1
New Load.motor_load_p6ulv13225_2 conn=wye bus1=p6ulv13225.2 kV=0.12 kW=1.227678545873492 kvar=0.2455357091746984 Phases=1 Vminpu=0.0 Vmaxpu=1.2 model=1
New Load.motor_load_p6ulv13226_1 conn=wye bus1=p6ulv13226.1 kV=0.12 kW=1.2610745676845094 kvar=0.2522149135369019 Phases=1 Vminpu=0.0 Vmaxpu=1.2 model=1
New Load.motor_load_p6ulv13226_2 conn=wye bus1=p6ulv13226.2 kV=0.12 kW=1.2265466479437104 kvar=0.24530932958874208 Phases=1 Vminpu=0.0 Vmaxpu=1.2 model=1
New Load.motor_load_p6ulv13228_1 conn=wye bus1=p6ulv13228.1 kV=0.12 kW=1.2331082408251297 kvar=0.24662164816502596 Phases=1 Vminpu=0.0 Vmaxpu=1.2 model=1
New Load.motor_load_p6ulv13229_1 conn=wye bus1=p6ulv13229.1 kV=0.12 kW=1.1876158689896616 kvar=0.23752317379793234 Phases=1 Vminpu=0.0 Vmaxpu=1.2 model=1
New Load.motor_load_p6ulv13232_2 conn=wye bus1=p6ulv13232.2 kV=0.12 kW=1.217501745518008 kvar=0.2435003491036016 Phases=1 Vminpu=0.0 Vmaxpu=1.2 model=1
New Load.motor_load_p6ulv13233_2 conn=wye bus1=p6ulv13233.2 kV=0.12 kW=1.2590541702306788 kvar=0.25181083404613575 Phases=1 Vminpu=0.0 Vmaxpu=1.2 model=1
New Load.motor_load_p6ulv13234_1 conn=wye bus1=p6ulv13234.1 kV=0.12 kW=1.0787276179458367 kvar=0.21574552358916735 Phases=1 Vminpu=0.0 Vmaxpu=1.2 model=1
New Load.motor_load_p6ulv13237_2 conn=wye bus1=p6ulv13237.2 kV=0.12 kW=1.0581136240335947 kvar=0.21162272480671895 Phases=1 Vminpu=0.0 Vmaxpu=1.2 model=1
New Load.motor_load_p6ulv13238_2 conn=wye bus1=p6ulv13238.2 kV=0.12 kW=1.2383945598641035 kvar=0.24767891197282071 Phases=1 Vminpu=0.0 Vmaxpu=1.2 model=1
New Load.motor_load_p6ulv13239_2 conn=wye bus1=p6ulv13239.2 kV=0.12 kW=1.0797839925405113 kvar=0.21595679850810226 Phases=1 Vminpu=0.0 Vmaxpu=1.2 model=1
New Load.motor_load_p6ulv13240_1 conn=wye bus1=p6ulv13240.1 kV=0.12 kW=1.0736514409071656 kvar=0.21473028818143314 Phases=1 Vminpu=0.0 Vmaxpu=1.2 model=1
New Load.motor_load_p6ulv13244_2 conn=wye bus1=p6ulv13244.2 kV=0.12 kW=1.1412004388896033 kvar=0.22824008777792068 Phases=1 Vminpu=0.0 Vmaxpu=1.2 model=1
New Load.motor_load_p6ulv13245_2 conn=wye bus1=p6ulv13245.2 kV=0.12 kW=1.2165550638973621 kvar=0.24331101277947242 Phases=1 Vminpu=0.0 Vmaxpu=1.2 model=1
New Load.motor_load_p6ulv13246_1 conn=wye bus1=p6ulv13246.1 kV=0.12 kW=1.211652332871338 kvar=0.2423304665742676 Phases=1 Vminpu=0.0 Vmaxpu=1.2 model=1
New Load.motor_load_p6ulv13248_2 conn=wye bus1=p6ulv13248.2 kV=0.12 kW=1.0928724440413389 kvar=0.2185744888082678 Phases=1 Vminpu=0.0 Vmaxpu=1.2 model=1
New Load.motor_load_p6ulv13250_2 conn=wye bus1=p6ulv13250.2 kV=0.12 kW=1.2234752226752197 kvar=0.24469504453504395 Phases=1 Vminpu=0.0 Vmaxpu=1.2 model=1
New Load.motor_load_p6ulv13253_1 conn=wye bus1=p6ulv13253.1 kV=0.12 kW=1.2257717382647852 kvar=0.24515434765295707 Phases=1 Vminpu=0.0 Vmaxpu=1.2 model=1
New Load.motor_load_p6ulv13254_1 conn=wye bus1=p6ulv13254.1 kV=0.12 kW=1.2234325149020289 kvar=0.24468650298040578 Phases=1 Vminpu=0.0 Vmaxpu=1.2 model=1
New Load.motor_load_p6ulv13255_2 conn=wye bus1=p6ulv13255.2 kV=0.12 kW=1.1727501050327944 kvar=0.2345500210065589 Phases=1 Vminpu=0.0 Vmaxpu=1.2 model=1
New Load.motor_load_p6ulv13258_1 conn=wye bus1=p6ulv13258.1 kV=0.12 kW=1.2202502191869793 kvar=0.24405004383739587 Phases=1 Vminpu=0.0 Vmaxpu=1.2 model=1
New Load.motor_load_p6ulv13260_2 conn=wye bus1=p6ulv13260.2 kV=0.12 kW=1.205830501460429 kvar=0.2411661002920858 Phases=1 Vminpu=0.0 Vmaxpu=1.2 model=1
New Load.motor_load_p6ulv13262_1 conn=wye bus1=p6ulv13262.1 kV=0.12 kW=1.2285503548668706 kvar=0.24571007097337413 Phases=1 Vminpu=0.0 Vmaxpu=1.2 model=1
New Load.motor_load_p6ulv13262_2 conn=wye bus1=p6ulv13262.2 kV=0.12 kW=1.2098752981309608 kvar=0.24197505962619217 Phases=1 Vminpu=0.0 Vmaxpu=1.2 model=1
New Load.motor_load_p6ulv13263_2 conn=wye bus1=p6ulv13263.2 kV=0.12 kW=1.1266692902811333 kvar=0.22533385805622666 Phases=1 Vminpu=0.0 Vmaxpu=1.2 model=1
New Load.motor_load_p6ulv13269_1 conn=wye bus1=p6ulv13269.1 kV=0.12 kW=1.2190722015445004 kvar=0.2438144403089001 Phases=1 Vminpu=0.0 Vmaxpu=1.2 model=1
New Load.motor_load_p6ulv13270_2 conn=wye bus1=p6ulv13270.2 kV=0.12 kW=1.0724902390340543 kvar=0.21449804780681087 Phases=1 Vminpu=0.0 Vmaxpu=1.2 model=1
New Load.motor_load_p6ulv13272_1 conn=wye bus1=p6ulv13272.1 kV=0.12 kW=1.2033348941936675 kvar=0.2406669788387335 Phases=1 Vminpu=0.0 Vmaxpu=1.2 model=1
New Load.motor_load_p6ulv13273_1 conn=wye bus1=p6ulv13273.1 kV=0.12 kW=1.1419739922166006 kvar=0.2283947984433201 Phases=1 Vminpu=0.0 Vmaxpu=1.2 model=1
New Load.motor_load_p6ulv13275_1 conn=wye bus1=p6ulv13275.1 kV=0.12 kW=1.1266769076273084 kvar=0.2253353815254617 Phases=1 Vminpu=0.0 Vmaxpu=1.2 model=1
New Load.motor_load_p6ulv13277_2 conn=wye bus1=p6ulv13277.2 kV=0.12 kW=1.1387225121752473 kvar=0.22774450243504948 Phases=1 Vminpu=0.0 Vmaxpu=1.2 model=1
New Load.motor_load_p6ulv13279_1 conn=wye bus1=p6ulv13279.1 kV=0.12 kW=1.0606520689337182 kvar=0.21213041378674366 Phases=1 Vminpu=0.0 Vmaxpu=1.2 model=1
New Load.motor_load_p6ulv13279_2 conn=wye bus1=p6ulv13279.2 kV=0.12 kW=1.1700534412685377 kvar=0.23401068825370755 Phases=1 Vminpu=0.0 Vmaxpu=1.2 model=1
New Load.motor_load_p6ulv13281_2 conn=wye bus1=p6ulv13281.2 kV=0.12 kW=1.0812363410358774 kvar=0.2162472682071755 Phases=1 Vminpu=0.0 Vmaxpu=1.2 model=1
New Load.motor_load_p6ulv13285_1 conn=wye bus1=p6ulv13285.1 kV=0.12 kW=1.1767691814159293 kvar=0.23535383628318587 Phases=1 Vminpu=0.0 Vmaxpu=1.2 model=1
New Load.motor_load_p6ulv13289_1 conn=wye bus1=p6ulv13289.1 kV=0.12 kW=1.1881192897885742 kvar=0.23762385795771485 Phases=1 Vminpu=0.0 Vmaxpu=1.2 model=1
New Load.motor_load_p6ulv13289_2 conn=wye bus1=p6ulv13289.2 kV=0.12 kW=1.1243353904795905 kvar=0.2248670780959181 Phases=1 Vminpu=0.0 Vmaxpu=1.2 model=1
New Load.motor_load_p6ulv13290_1 conn=wye bus1=p6ulv13290.1 kV=0.12 kW=1.193289370817838 kvar=0.23865787416356762 Phases=1 Vminpu=0.0 Vmaxpu=1.2 model=1
New Load.motor_load_p6ulv13290_2 conn=wye bus1=p6ulv13290.2 kV=0.12 kW=1.1984886533162569 kvar=0.2396977306632514 Phases=1 Vminpu=0.0 Vmaxpu=1.2 model=1
New Load.motor_load_p6ulv13292_1 conn=wye bus1=p6ulv13292.1 kV=0.12 kW=1.2349783729622852 kvar=0.24699567459245705 Phases=1 Vminpu=0.0 Vmaxpu=1.2 model=1
New Load.motor_load_p6ulv13295_1 conn=wye bus1=p6ulv13295.1 kV=0.12 kW=1.0570334090387146 kvar=0.2114066818077429 Phases=1 Vminpu=0.0 Vmaxpu=1.2 model=1
New Load.motor_load_p6ulv13298_1 conn=wye bus1=p6ulv13298.1 kV=0.12 kW=1.1682091081482462 kvar=0.23364182162964925 Phases=1 Vminpu=0.0 Vmaxpu=1.2 model=1
New Load.motor_load_p6ulv13299_1 conn=wye bus1=p6ulv13299.1 kV=0.12 kW=1.2233235299999992 kvar=0.24466470599999984 Phases=1 Vminpu=0.0 Vmaxpu=1.2 model=1
New Load.motor_load_p6ulv13300_1 conn=wye bus1=p6ulv13300.1 kV=0.12 kW=1.0647980331033708 kvar=0.21295960662067417 Phases=1 Vminpu=0.0 Vmaxpu=1.2 model=1
New Load.motor_load_p6ulv13302_1 conn=wye bus1=p6ulv13302.1 kV=0.12 kW=1.074226833186119 kvar=0.21484536663722378 Phases=1 Vminpu=0.0 Vmaxpu=1.2 model=1
New Load.motor_load_p6ulv13302_2 conn=wye bus1=p6ulv13302.2 kV=0.12 kW=1.1376858973006652 kvar=0.22753717946013305 Phases=1 Vminpu=0.0 Vmaxpu=1.2 model=1
New Load.motor_load_p6ulv13306_1 conn=wye bus1=p6ulv13306.1 kV=0.12 kW=1.1396917392082253 kvar=0.22793834784164507 Phases=1 Vminpu=0.0 Vmaxpu=1.2 model=1
New Load.motor_load_p6ulv13306_2 conn=wye bus1=p6ulv13306.2 kV=0.12 kW=1.192278007498773 kvar=0.23845560149975464 Phases=1 Vminpu=0.0 Vmaxpu=1.2 model=1
New Load.motor_load_p6ulv13309_1 conn=wye bus1=p6ulv13309.1 kV=0.12 kW=1.2091189170261611 kvar=0.24182378340523225 Phases=1 Vminpu=0.0 Vmaxpu=1.2 model=1
New Load.motor_load_p6ulv13312_1 conn=wye bus1=p6ulv13312.1 kV=0.12 kW=1.0627869796441614 kvar=0.21255739592883227 Phases=1 Vminpu=0.0 Vmaxpu=1.2 model=1
New Load.motor_load_p6ulv13312_2 conn=wye bus1=p6ulv13312.2 kV=0.12 kW=1.087287376003866 kvar=0.2174574752007732 Phases=1 Vminpu=0.0 Vmaxpu=1.2 model=1
New Load.motor_load_p6ulv13315_2 conn=wye bus1=p6ulv13315.2 kV=0.12 kW=1.1140035922153462 kvar=0.22280071844306926 Phases=1 Vminpu=0.0 Vmaxpu=1.2 model=1
New Load.motor_load_p6ulv13316_1 conn=wye bus1=p6ulv13316.1 kV=0.12 kW=1.0667033122901384 kvar=0.21334066245802769 Phases=1 Vminpu=0.0 Vmaxpu=1.2 model=1
New Load.motor_load_p6ulv13316_2 conn=wye bus1=p6ulv13316.2 kV=0.12 kW=1.1302670841235587 kvar=0.22605341682471175 Phases=1 Vminpu=0.0 Vmaxpu=1.2 model=1
New Load.motor_load_p6ulv13321_1 conn=wye bus1=p6ulv13321.1 kV=0.12 kW=1.2465476227799 kvar=0.24930952455598 Phases=1 Vminpu=0.0 Vmaxpu=1.2 model=1
New Load.motor_load_p6ulv13321_2 conn=wye bus1=p6ulv13321.2 kV=0.12 kW=1.229206898156418 kvar=0.2458413796312836 Phases=1 Vminpu=0.0 Vmaxpu=1.2 model=1
New Load.motor_load_p6ulv13323_1 conn=wye bus1=p6ulv13323.1 kV=0.12 kW=1.156943787846284 kvar=0.2313887575692568 Phases=1 Vminpu=0.0 Vmaxpu=1.2 model=1
New Load.motor_load_p6ulv13323_2 conn=wye bus1=p6ulv13323.2 kV=0.12 kW=1.158534264607815 kvar=0.231706852921563 Phases=1 Vminpu=0.0 Vmaxpu=1.2 model=1
New Load.motor_load_p6ulv13324_1 conn=wye bus1=p6ulv13324.1 kV=0.12 kW=1.2073384450982023 kvar=0.24146768901964047 Phases=1 Vminpu=0.0 Vmaxpu=1.2 model=1
New Load.motor_load_p6ulv13326_1 conn=wye bus1=p6ulv13326.1 kV=0.12 kW=1.0792761761391294 kvar=0.2158552352278259 Phases=1 Vminpu=0.0 Vmaxpu=1.2 model=1
New Load.motor_load_p6ulv13327_1 conn=wye bus1=p6ulv13327.1 kV=0.12 kW=1.1607882865809458 kvar=0.23215765731618918 Phases=1 Vminpu=0.0 Vmaxpu=1.2 model=1
New Load.motor_load_p6ulv13328_2 conn=wye bus1=p6ulv13328.2 kV=0.12 kW=1.135724938848825 kvar=0.22714498776976502 Phases=1 Vminpu=0.0 Vmaxpu=1.2 model=1
New Load.motor_load_p6ulv13331_1 conn=wye bus1=p6ulv13331.1 kV=0.12 kW=1.1919042035185115 kvar=0.2383808407037023 Phases=1 Vminpu=0.0 Vmaxpu=1.2 model=1
New Load.motor_load_p6ulv13332_1 conn=wye bus1=p6ulv13332.1 kV=0.12 kW=1.1585849822253718 kvar=0.23171699644507437 Phases=1 Vminpu=0.0 Vmaxpu=1.2 model=1
New Load.motor_load_p6ulv13332_2 conn=wye bus1=p6ulv13332.2 kV=0.12 kW=1.0723353279273706 kvar=0.21446706558547413 Phases=1 Vminpu=0.0 Vmaxpu=1.2 model=1
New Load.motor_load_p6ulv13334_2 conn=wye bus1=p6ulv13334.2 kV=0.12 kW=1.2037170282254055 kvar=0.24074340564508112 Phases=1 Vminpu=0.0 Vmaxpu=1.2 model=1
New Load.motor_load_p6ulv13335_1 conn=wye bus1=p6ulv13335.1 kV=0.12 kW=1.11645566608427 kvar=0.223291133216854 Phases=1 Vminpu=0.0 Vmaxpu=1.2 model=1
New Load.motor_load_p6ulv13335_2 conn=wye bus1=p6ulv13335.2 kV=0.12 kW=1.1540065387416567 kvar=0.23080130774833135 Phases=1 Vminpu=0.0 Vmaxpu=1.2 model=1
New Load.motor_load_p6ulv13337_1 conn=wye bus1=p6ulv13337.1 kV=0.12 kW=1.2096718163353195 kvar=0.2419343632670639 Phases=1 Vminpu=0.0 Vmaxpu=1.2 model=1
New Load.motor_load_p6ulv13337_2 conn=wye bus1=p6ulv13337.2 kV=0.12 kW=1.1700271400397093 kvar=0.23400542800794188 Phases=1 Vminpu=0.0 Vmaxpu=1.2 model=1
New Load.motor_load_p6ulv13339_2 conn=wye bus1=p6ulv13339.2 kV=0.12 kW=1.1400810615141188 kvar=0.22801621230282376 Phases=1 Vminpu=0.0 Vmaxpu=1.2 model=1
New Load.motor_load_p6ulv13343_2 conn=wye bus1=p6ulv13343.2 kV=0.12 kW=1.2494265124548907 kvar=0.24988530249097815 Phases=1 Vminpu=0.0 Vmaxpu=1.2 model=1
New Load.motor_load_p6ulv13347_1 conn=wye bus1=p6ulv13347.1 kV=0.12 kW=1.2115033862325637 kvar=0.24230067724651275 Phases=1 Vminpu=0.0 Vmaxpu=1.2 model=1
New Load.motor_load_p6ulv13347_2 conn=wye bus1=p6ulv13347.2 kV=0.12 kW=1.237535134716148 kvar=0.24750702694322962 Phases=1 Vminpu=0.0 Vmaxpu=1.2 model=1
New Load.motor_load_p6ulv13348_1 conn=wye bus1=p6ulv13348.1 kV=0.12 kW=1.2085174717855032 kvar=0.24170349435710065 Phases=1 Vminpu=0.0 Vmaxpu=1.2 model=1
New Load.motor_load_p6ulv13349_2 conn=wye bus1=p6ulv13349.2 kV=0.12 kW=1.1409638198797551 kvar=0.22819276397595104 Phases=1 Vminpu=0.0 Vmaxpu=1.2 model=1
New Load.motor_load_p6ulv13350_1 conn=wye bus1=p6ulv13350.1 kV=0.12 kW=1.2322807184218718 kvar=0.24645614368437438 Phases=1 Vminpu=0.0 Vmaxpu=1.2 model=1
New Load.motor_load_p6ulv13352_2 conn=wye bus1=p6ulv13352.2 kV=0.12 kW=1.2418611096478032 kvar=0.24837222192956065 Phases=1 Vminpu=0.0 Vmaxpu=1.2 model=1
New Load.motor_load_p6ulv13354_2 conn=wye bus1=p6ulv13354.2 kV=0.12 kW=1.216029055991924 kvar=0.2432058111983848 Phases=1 Vminpu=0.0 Vmaxpu=1.2 model=1
New Load.motor_load_p6ulv13356_1 conn=wye bus1=p6ulv13356.1 kV=0.12 kW=1.2055056672314095 kvar=0.24110113344628192 Phases=1 Vminpu=0.0 Vmaxpu=1.2 model=1
New Load.motor_load_p6ulv13359_1 conn=wye bus1=p6ulv13359.1 kV=0.12 kW=1.2518094654101215 kvar=0.25036189308202433 Phases=1 Vminpu=0.0 Vmaxpu=1.2 model=1
New Load.motor_load_p6ulv13359_2 conn=wye bus1=p6ulv13359.2 kV=0.12 kW=1.210005904944563 kvar=0.24200118098891263 Phases=1 Vminpu=0.0 Vmaxpu=1.2 model=1
New Load.motor_load_p6ulv13360_1 conn=wye bus1=p6ulv13360.1 kV=0.12 kW=1.1524957422998434 kvar=0.2304991484599687 Phases=1 Vminpu=0.0 Vmaxpu=1.2 model=1
New Load.motor_load_p6ulv13361_1 conn=wye bus1=p6ulv13361.1 kV=0.12 kW=1.1525939049920328 kvar=0.23051878099840659 Phases=1 Vminpu=0.0 Vmaxpu=1.2 model=1
New Load.motor_load_p6ulv13362_1 conn=wye bus1=p6ulv13362.1 kV=0.12 kW=1.2289021908623088 kvar=0.24578043817246176 Phases=1 Vminpu=0.0 Vmaxpu=1.2 model=1
New Load.motor_load_p6ulv13365_2 conn=wye bus1=p6ulv13365.2 kV=0.12 kW=1.0892353715698238 kvar=0.21784707431396477 Phases=1 Vminpu=0.0 Vmaxpu=1.2 model=1
New Load.motor_load_p6ulv13367_2 conn=wye bus1=p6ulv13367.2 kV=0.12 kW=1.1881517861835995 kvar=0.2376303572367199 Phases=1 Vminpu=0.0 Vmaxpu=1.2 model=1