New Generator.pv_load_p6ulv6288_2 conn=wye bus1=p6ulv6288.2 kV=0.12 model=7 kW=0.12473974139016412 kvar=-0.0 Phases=1
New Generator.pv_load_p6ulv7111_2 conn=wye bus1=p6ulv7111.2 kV=0.12 model=7 kW=1.9793000405810555 kvar=-0.0 Phases=1
New Generator.pv_load_p6ulv7112_2 conn=wye bus1=p6ulv7112.2 kV=0.12 model=7 kW=0.8326011938270387 kvar=-0.0 Phases=1
New Generator.pv_load_p6ulv8117_2 conn=wye bus1=p6ulv8117.2 kV=0.12 model=7 kW=2.6676313452685894 kvar=-0.0 Phases=1
New Generator.pv_load_p6ulv8123 conn=wye bus1=p6ulv8123.1.2.3 kV=0.48 model=7 kW=11.307743942213882 kvar=-0.0 Phases=3
New Generator.pv_load_p6ulv8125_2 conn=wye bus1=p6ulv8125.2 kV=0.12 model=7 kW=0.8927161524251072 kvar=-0.0 Phases=1
New Generator.pv_load_p6ulv8127_1 conn=wye bus1=p6ulv8127.1 kV=0.12 model=7 kW=1.3105196233035783 kvar=-0.0 Phases=1
New Generator.pv_load_p6ulv8129_1 conn=wye bus1=p6ulv8129.1 kV=0.12 model=7 kW=1.7523660718733467 kvar=-0.0 Phases=1
New Generator.pv_load_p6ulv8130_2 conn=wye bus1=p6ulv8130.2 kV=0.12 model=7 kW=1.1932939511633796 kvar=-0.0 Phases=1
New Generator.pv_load_p6ulv8131_2 conn=wye bus1=p6ulv8131.2 kV=0.12 model=7 kW=1.6020786753781753 kvar=-0.0 Phases=1
New Generator.pv_load_p6ulv8134_1 conn=wye bus1=p6ulv8134.1 kV=0.12 model=7 kW=0.5861268578270278 kvar=-0.0 Phases=1
New Generator.pv_load_p6ulv8134_2 conn=wye bus1=p6ulv8134.2 kV=0.12 model=7 kW=0.5861268578270278 kvar=-0.0 Phases=1
New Generator.pv_load_p6ulv8140_2 conn=wye bus1=p6ulv8140.2 kV=0.12 model=7 kW=0.3065892945980793 kvar=-0.0 Phases=1
New Generator.pv_load_p6ulv8142 conn=wye bus1=p6ulv8142.1.2.3 kV=0.48 model=7 kW=22.086446191285464 kvar=-0.0 Phases=3
New Generator.pv_load_p6ulv8143_2 conn=wye bus1=p6ulv8143.2 kV=0.12 model=7 kW=0.26300594961447965 kvar=-0.0 Phases=1
New Generator.pv_load_p6ulv8144_2 conn=wye bus1=p6ulv8144.2 kV=0.12 model=7 kW=0.16231189108874994 kvar=-0.0 Phases=1
New Generator.pv_load_p6ulv8153_1 conn=wye bus1=p6ulv8153.1 kV=0.12 model=7 kW=0.24797720996496253 kvar=-0.0 Phases=1
New Generator.pv_load_p6ulv8153_2 conn=wye bus1=p6ulv8153.2 kV=0.12 model=7 kW=0.24797720996496253 kvar=-0.0 Phases=1
New Generator.pv_load_p6ulv8155_2 conn=wye bus1=p6ulv8155.2 kV=0.12 model=7 kW=0.46739831172187757 kvar=-0.0 Phases=1
New Generator.pv_load_p6ulv8156_1 conn=wye bus1=p6ulv8156.1 kV=0.12 model=7 kW=0.2810404371939002 kvar=-0.0 Phases=1
New Generator.pv_load_p6ulv8157_1 conn=wye bus1=p6ulv8157.1 kV=0.12 model=7 kW=0.24046284014020394 kvar=-0.0 Phases=1
New Generator.pv_load_p6ulv8158_1 conn=wye bus1=p6ulv8157.1 kV=0.12 model=7 kW=0.24948008392991425 kvar=-0.0 Phases=1
New Generator.pv_load_p6ulv8160_1 conn=wye bus1=p6ulv8159.1 kV=0.12 model=7 kW=0.29757205080836907 kvar=-0.0 Phases=1
New Generator.pv_load_p6ulv8161_2 conn=wye bus1=p6ulv8161.2 kV=0.12 model=7 kW=0.2900576809836105 kvar=-0.0 Phases=1
New Generator.pv_load_p6ulv8172_2 conn=wye bus1=p6ulv8172.2 kV=0.12 model=7 kW=0.21340960589710817 kvar=-0.0 Phases=1
New Generator.pv_load_p6ulv8177_1 conn=wye bus1=p6ulv8177.1 kV=0.12 model=7 kW=0.3171094123527413 kvar=-0.0 Phases=1
New Generator.pv_load_p6ulv8180_2 conn=wye bus1=p6ulv8180.2 kV=0.12 model=7 kW=0.3231209082125482 kvar=-0.0 Phases=1
New Generator.pv_load_p6ulv8188_1 conn=wye bus1=p6ulv8188.1 kV=0.12 model=7 kW=0.3050864206331276 kvar=-0.0 Phases=1
New Generator.pv_load_p6ulv8188_2 conn=wye bus1=p6ulv8188.2 kV=0.12 model=7 kW=0.3050864206331276 kvar=-0.0 Phases=1
New Generator.pv_load_p6ulv8189_2 conn=wye bus1=p6ulv8189.2 kV=0.12 model=7 kW=0.2584973277196246 kvar=-0.0 Phases=1
New Generator.pv_load_p6ulv8193_1 conn=wye bus1=p6ulv8193.1 kV=0.12 model=7 kW=0.3832373696845817 kvar=-0.0 Phases=1
New Generator.pv_load_p6ulv8195_1 conn=wye bus1=p6ulv8195.1 kV=0.12 model=7 kW=0.2600002016845762 kvar=-0.0 Phases=1
New Generator.pv_load_p6ulv8196_2 conn=wye bus1=p6ulv8196.2 kV=0.12 model=7 kW=0.21040385796720473 kvar=-0.0 Phases=1
New Generator.pv_load_p6ulv11954 conn=wye bus1=p6ulv11954.1.2.3 kV=0.48 model=7 kW=8.972247743199624 kvar=-0.0 Phases=3
New Generator.pv_load_p6ulv11964_2 conn=wye bus1=p6ulv11964.2 kV=0.12 model=7 kW=0.14878602540418454 kvar=-0.0 Phases=1
New Generator.pv_load_p6ulv13098_1 conn=wye bus1=p6ulv13098.1 kV=0.12 model=7 kW=0.23595421824534882 kvar=-0.0 Phases=1
New Generator.pv_load_p6ulv13101_2 conn=wye bus1=p6ulv13101.2 kV=0.12 model=7 kW=2.2498173542723636 kvar=-0.0 Phases=1
New Generator.pv_load_p6ulv13102_2 conn=wye bus1=p6ulv13102.2 kV=0.12 model=7 kW=1.2143341866727038 kvar=-0.0 Phases=1
New Generator.pv_load_p6ulv13103_2 conn=wye bus1=p6ulv13102.2 kV=0.12 model=7 kW=0.29907492477332076 kvar=-0.0 Phases=1
New Generator.pv_load_p6ulv13106_2 conn=wye bus1=p6ulv13106.2 kV=0.12 model=7 kW=0.360692757336341 kvar=-0.0 Phases=1
New Generator.pv_load_p6ulv13123_2 conn=wye bus1=p6ulv13123.2 kV=0.12 model=7 kW=0.16381476505370163 kvar=-0.0 Phases=1
New Generator.pv_load_p6ulv13126_2 conn=wye bus1=p6ulv13126.2 kV=0.12 model=7 kW=0.4057804791588573 kvar=-0.0 Phases=1
New Generator.pv_load_p6ulv13144_2 conn=wye bus1=p6ulv13144.2 kV=0.12 model=7 kW=0.19387224435273592 kvar=-0.0 Phases=1
New Generator.pv_load_p6ulv13146_1 conn=wye bus1=p6ulv13146.1 kV=0.12 model=7 kW=0.3381496478620653 kvar=-0.0 Phases=1
New Generator.pv_load_p6ulv13152_2 conn=wye bus1=p6ulv13152.2 kV=0.12 model=7 kW=0.339652521827017 kvar=-0.0 Phases=1
New Generator.pv_load_p6ulv13154_1 conn=wye bus1=p6ulv13154.1 kV=0.12 model=7 kW=0.23745709221030054 kvar=-0.0 Phases=1
New Generator.pv_load_p6ulv13162_1 conn=wye bus1=p6ulv13162.1 kV=0.12 model=7 kW=0.1908664964228325 kvar=-0.0 Phases=1
New Generator.pv_load_p6ulv13164_1 conn=wye bus1=p6ulv13164.1 kV=0.12 model=7 kW=0.2164153538270116 kvar=-0.0 Phases=1
New Generator.pv_load_p6ulv13168_2 conn=wye bus1=p6ulv13168.2 kV=0.12 model=7 kW=0.35918988337138924 kvar=-0.0 Phases=1
New Generator.pv_load_p6ulv13187_2 conn=wye bus1=p6ulv13187.2 kV=0.12 model=7 kW=0.3005777987382725 kvar=-0.0 Phases=1
New Generator.pv_load_p6ulv13192_1 conn=wye bus1=p6ulv13192.1 kV=0.12 model=7 kW=0.2539887058247694 kvar=-0.0 Phases=1
New Generator.pv_load_p6ulv13199_1 conn=wye bus1=p6ulv13199.1 kV=0.12 model=7 kW=0.26150307564952796 kvar=-0.0 Phases=1
New Generator.pv_load_p6ulv13199_2 conn=wye bus1=p6ulv13199.2 kV=0.12 model=7 kW=0.26150307564952796 kvar=-0.0 Phases=1
New Generator.pv_load_p6ulv13203_2 conn=wye bus1=p6ulv13203.2 kV=0.12 model=7 kW=0.23595421824534882 kvar=-0.0 Phases=1
New Generator.pv_load_p6ulv13204_1 conn=wye bus1=p6ulv13204.1 kV=0.12 model=7 kW=0.21190673193215645 kvar=-0.0 Phases=1
New Generator.pv_load_p6ulv13208_2 conn=wye bus1=p6ulv13208.2 kV=0.12 model=7 kW=0.2344513442803971 kvar=-0.0 Phases=1
New Generator.pv_load_p6ulv13213_1 conn=wye bus1=p6ulv13213.1 kV=0.12 model=7 kW=0.2539887058247694 kvar=-0.0 Phases=1
New Generator.pv_load_p6ulv13214_1 conn=wye bus1=p6ulv13214.1 kV=0.12 model=7 kW=0.25248583185981766 kvar=-0.0 Phases=1
New Generator.pv_load_p6ulv13218_1 conn=wye bus1=p6ulv13218.1 kV=0.12 model=7 kW=0.18485500056302565 kvar=-0.0 Phases=1
New Generator.pv_load_p6ulv13221_2 conn=wye bus1=p6ulv13221.2 kV=0.12 model=7 kW=0.20288948814244617 kvar=-0.0 Phases=1
New Generator.pv_load_p6ulv13223_1 conn=wye bus1=p6ulv13223.1 kV=0.12 model=7 kW=0.308092168563031 kvar=-0.0 Phases=1
New Generator.pv_load_p6ulv13225_2 conn=wye bus1=p6ulv13225.2 kV=0.12 model=7 kW=0.21942110175691504 kvar=-0.0 Phases=1
New Generator.pv_load_p6ulv13231_2 conn=wye bus1=p6ulv13231.2 kV=0.12 model=7 kW=0.2058952360723496 kvar=-0.0 Phases=1
New Generator.pv_load_p6ulv13238_1 conn=wye bus1=p6ulv13238.1 kV=0.12 model=7 kW=0.14427740350932938 kvar=-0.0 Phases=1
New Generator.pv_load_p6ulv13241_2 conn=wye bus1=p6ulv13241.2 kV=0.12 model=7 kW=0.3937574874392436 kvar=-0.0 Phases=1
New Generator.pv_load_p6ulv13244_1 conn=wye bus1=p6ulv13244.1 kV=0.12 model=7 kW=0.3005777987382725 kvar=-0.0 Phases=1
New Generator.pv_load_p6ulv13245_2 conn=wye bus1=p6ulv13245.2 kV=0.12 model=7 kW=0.39075173950934017 kvar=-0.0 Phases=1
New Generator.pv_load_p6ulv13246_2 conn=wye bus1=p6ulv13246.2 kV=0.12 model=7 kW=0.3005777987382725 kvar=-0.0 Phases=1
New Generator.pv_load_p6ulv13247_2 conn=wye bus1=p6ulv13247.2 kV=0.12 model=7 kW=0.30959504252798276 kvar=-0.0 Phases=1
New Generator.pv_load_p6ulv13249_1 conn=wye bus1=p6ulv13249.1 kV=0.12 model=7 kW=0.19988374021254274 kvar=-0.0 Phases=1
New Generator.pv_load_p6ulv13257_1 conn=wye bus1=p6ulv13257.1 kV=0.12 model=7 kW=0.7514444968456812 kvar=-0.0 Phases=1
New Generator.pv_load_p6ulv13257_2 conn=wye bus1=p6ulv13257.2 kV=0.12 model=7 kW=0.7514444968456812 kvar=-0.0 Phases=1
New Generator.pv_load_p6ulv13259_2 conn=wye bus1=p6ulv13259.2 kV=0.12 model=7 kW=1.2263571783923173 kvar=-0.0 Phases=1
New Generator.pv_load_p6ulv13262_2 conn=wye bus1=p6ulv13262.2 kV=0.12 model=7 kW=0.7815019761447154 kvar=-0.0 Phases=1
New Generator.pv_load_p6ulv13267_2 conn=wye bus1=p6ulv13267.2 kV=0.12 model=7 kW=0.38774599157943673 kvar=-0.0 Phases=1
New Generator.pv_load_p6ulv13275_1 conn=wye bus1=p6ulv13275.1 kV=0.12 model=7 kW=0.3982661093340988 kvar=-0.0 Phases=1
New Generator.pv_load_p6ulv13276_1 conn=wye bus1=p6ulv13276.1 kV=0.12 model=7 kW=0.5545665045630419 kvar=-0.0 Phases=1
New Generator.pv_load_p6ulv13276_2 conn=wye bus1=p6ulv13276.2 kV=0.12 model=7 kW=0.5545665045630419 kvar=-0.0 Phases=1
New Generator.pv_load_p6ulv13278_1 conn=wye bus1=p6ulv13278.1 kV=0.12 model=7 kW=0.5470521347382833 kvar=-0.0 Phases=1
New Generator.pv_load_p6ulv13278_2 conn=wye bus1=p6ulv13278.2 kV=0.12 model=7 kW=0.5470521347382833 kvar=-0.0 Phases=1
New Generator.pv_load_p6ulv13279_2 conn=wye bus1=p6ulv13279.2 kV=0.12 model=7 kW=0.5215017744601392 kvar=-0.0 Phases=1
New Generator.pv_load_p6ulv13280_1 conn=wye bus1=p6ulv13280.1 kV=0.12 model=7 kW=0.49294716912605674 kvar=-0.0 Phases=1
New Generator.pv_load_p6ulv13280_2 conn=wye bus1=p6ulv13280.2 kV=0.12 model=7 kW=0.49294716912605674 kvar=-0.0 Phases=1
New Generator.pv_load_p6ulv13281_1 conn=wye bus1=p6ulv13281.1 kV=0.12 model=7 kW=0.4583810679321673 kvar=-0.0 Phases=1
New Generator.pv_load_p6ulv13284_1 conn=wye bus1=p6ulv13284.1 kV=0.12 model=7 kW=1.3195368670932883 kvar=-0.0 Phases=1
New Generator.pv_load_p6ulv13285_2 conn=wye bus1=p6ulv13285.2 kV=0.12 model=7 kW=1.1452019842849248 kvar=-0.0 Phases=1
New Generator.pv_load_p6ulv13286_1 conn=wye bus1=p6ulv13286.1 kV=0.12 model=7 kW=1.0805769009180362 kvar=-0.0 Phases=1
New Generator.pv_load_p6ulv13287_2 conn=wye bus1=p6ulv13287.2 kV=0.12 model=7 kW=0.9949130849157886 kvar=-0.0 Phases=1
New Generator.pv_load_p6ulv13288_2 conn=wye bus1=p6ulv13288.2 kV=0.12 model=7 kW=0.3757214969858581 kvar=-0.0 Phases=1
New Generator.pv_load_p6ulv13291_2 conn=wye bus1=p6ulv13291.2 kV=0.12 model=7 kW=0.30959504252798276 kvar=-0.0 Phases=1
New Generator.pv_load_p6ulv13296_1 conn=wye bus1=p6ulv13296.1 kV=0.12 model=7 kW=0.22543410049068682 kvar=-0.0 Phases=1
New Generator.pv_load_p6ulv13302_1 conn=wye bus1=p6ulv13302.1 kV=0.12 model=7 kW=0.18485500056302565 kvar=-0.0 Phases=1
New Generator.pv_load_p6ulv13306_2 conn=wye bus1=p6ulv13306.2 kV=0.12 model=7 kW=0.28855480701865877 kvar=-0.0 Phases=1
New Generator.pv_load_p6ulv13308_1 conn=wye bus1=p6ulv13308.1 kV=0.12 model=7 kW=0.2930634289135139 kvar=-0.0 Phases=1
New Generator.pv_load_p6ulv13311_1 conn=wye bus1=p6ulv13311.1 kV=0.12 model=7 kW=0.2344513442803971 kvar=-0.0 Phases=1
New Generator.pv_load_p6ulv13312_2 conn=wye bus1=p6ulv13312.2 kV=0.12 model=7 kW=0.3141036644228379 kvar=-0.0 Phases=1
New Generator.pv_load_p6ulv13313_2 conn=wye bus1=p6ulv13313.2 kV=0.12 model=7 kW=0.23144559635049367 kvar=-0.0 Phases=1
New Generator.pv_load_p6ulv13314_1 conn=wye bus1=p6ulv13314.1 kV=0.12 model=7 kW=0.30959504252798276 kvar=-0.0 Phases=1
New Generator.pv_load_p6ulv13316_1 conn=wye bus1=p6ulv13316.1 kV=0.12 model=7 kW=0.2675145715093348 kvar=-0.0 Phases=1
New Generator.pv_load_p6ulv13316_2 conn=wye bus1=p6ulv13316.2 kV=0.12 model=7 kW=0.2675145715093348 kvar=-0.0 Phases=1
New Generator.pv_load_p6ulv13317_1 conn=wye bus1=p6ulv13317.1 kV=0.12 model=7 kW=0.22843984842059023 kvar=-0.0 Phases=1
New Generator.pv_load_p6ulv13322_2 conn=wye bus1=p6ulv13322.2 kV=0.12 model=7 kW=0.16231189108874994 kvar=-0.0 Phases=1
New Generator.pv_load_p6ulv13325_2 conn=wye bus1=p6ulv13325.2 kV=0.12 model=7 kW=1.1587278499694902 kvar=-0.0 Phases=1
New Generator.pv_load_p6ulv13328_2 conn=wye bus1=p6ulv13328.2 kV=0.12 model=7 kW=0.25699445375467284 kvar=-0.0 Phases=1
New Generator.pv_load_p6ulv13329_2 conn=wye bus1=p6ulv13329.2 kV=0.12 model=7 kW=0.3802316217546783 kvar=-0.0 Phases=1
New Generator.pv_load_p6ulv13331_2 conn=wye bus1=p6ulv13331.2 kV=0.12 model=7 kW=0.29456630287846564 kvar=-0.0 Phases=1
New Generator.pv_load_p6ulv13334_1 conn=wye bus1=p6ulv13334.1 kV=0.12 model=7 kW=0.1908664964228325 kvar=-0.0 Phases=1
New Generator.pv_load_p6ulv13335_1 conn=wye bus1=p6ulv13335.1 kV=0.12 model=7 kW=0.2930634289135139 kvar=-0.0 Phases=1
New Generator.pv_load_p6ulv13339_1 conn=wye bus1=p6ulv13339.1 kV=0.12 model=7 kW=0.3005777987382725 kvar=-0.0 Phases=1
New Generator.pv_load_p6ulv13341_2 conn=wye bus1=p6ulv13341.2 kV=0.12 model=7 kW=0.23595421824534882 kvar=-0.0 Phases=1
New Generator.pv_load_p6ulv13342_1 conn=wye bus1=p6ulv13342.1 kV=0.12 model=7 kW=0.21040385796720473 kvar=-0.0 Phases=1
New Generator.pv_load_p6ulv13342_2 conn=wye bus1=p6ulv13342.2 kV=0.12 model=7 kW=0.21040385796720473 kvar=-0.0 Phases=1
New Generator.pv_load_p6ulv13344_2 conn=wye bus1=p6ulv13344.2 kV=0.12 model=7 kW=0.3141036644228379 kvar=-0.0 Phases=1
New Generator.pv_load_p6ulv13345_1 conn=wye bus1=p6ulv13345.1 kV=0.12 model=7 kW=0.2464743360000108 kvar=-0.0 Phases=1
New Generator.pv_load_p6ulv13347_2 conn=wye bus1=p6ulv13347.2 kV=0.12 model=7 kW=0.24797720996496253 kvar=-0.0 Phases=1
New Generator.pv_load_p6ulv13348_2 conn=wye bus1=p6ulv13348.2 kV=0.12 model=7 kW=0.1923693703877842 kvar=-0.0 Phases=1
New Generator.pv_load_p6ulv13352_1 conn=wye bus1=p6ulv13352.1 kV=0.12 model=7 kW=0.2449714620350591 kvar=-0.0 Phases=1
New Generator.pv_load_p6ulv13352_2 conn=wye bus1=p6ulv13352.2 kV=0.12 model=7 kW=0.2449714620350591 kvar=-0.0 Phases=1
New Generator.pv_load_p6ulv13353_1 conn=wye bus1=p6ulv13353.1 kV=0.12 model=7 kW=0.23144559635049367 kvar=-0.0 Phases=1
New Generator.pv_load_p6ulv13356_1 conn=wye bus1=p6ulv13356.1 kV=0.12 model=7 kW=0.19687799228263936 kvar=-0.0 Phases=1
New Generator.pv_load_p6ulv13357_1 conn=wye bus1=p6ulv13357.1 kV=0.12 model=7 kW=0.3937574874392436 kvar=-0.0 Phases=1
New Generator.pv_load_p6ulv13358_1 conn=wye bus1=p6ulv13358.1 kV=0.12 model=7 kW=0.18936362245788077 kvar=-0.0 Phases=1
New Generator.pv_load_p6ulv13359_1 conn=wye bus1=p6ulv13359.1 kV=0.12 model=7 kW=0.15780326919389484 kvar=-0.0 Phases=1
New Generator.pv_load_p6ulv13359_2 conn=wye bus1=p6ulv13359.2 kV=0.12 model=7 kW=0.15780326919389484 kvar=-0.0 Phases=1
New Generator.pv_load_p6ulv13361_2 conn=wye bus1=p6ulv13361.2 kV=0.12 model=7 kW=0.22693697445563854 kvar=-0.0 Phases=1
New Generator.pv_load_p6ulv13364_2 conn=wye bus1=p6ulv13364.2 kV=0.12 model=7 kW=0.22392972365177016 kvar=-0.0 Phases=1
New Generator.pv_load_p6ulv13366_1 conn=wye bus1=p6ulv13366.1 kV=0.12 model=7 kW=0.21942110175691504 kvar=-0.0 Phases=1
New Generator.pv_load_p6ulv13368_2 conn=wye bus1=p6ulv13368.2 kV=0.12 model=7 kW=0.19537511831768767 kvar=-0.0 Phases=1
New Generator.pv_load_p6ulv13369_2 conn=wye bus1=p6ulv13369.2 kV=0.12 model=7 kW=0.1803463786681705 kvar=-0.0 Phases=1
New Generator.pv_load_p6ulv13370_1 conn=wye bus1=p6ulv13370.1 kV=0.12 model=7 kW=0.13075138753736748 kvar=-0.0 Phases=1
New Generator.pv_load_p6ulv13373_1 conn=wye bus1=p6ulv13373.1 kV=0.12 model=7 kW=0.2344513442803971 kvar=-0.0 Phases=1
New Generator.pv_load_p6ulv16329_1 conn=wye bus1=p6ulv16329.1 kV=0.12 model=7 kW=0.5876297317919795 kvar=-0.0 Phases=1
New Generator.pv_load_p6ulv16330_2 conn=wye bus1=p6ulv16329.2 kV=0.12 model=7 kW=1.2879765138293024 kvar=-0.0 Phases=1
New Generator.pv_load_p6ulv16331_2 conn=wye bus1=p6ulv16331.2 kV=0.12 model=7 kW=1.5299407250604933 kvar=-0.0 Phases=1
New Generator.pv_load_p6ulv16332_2 conn=wye bus1=p6ulv16331.2 kV=0.12 model=7 kW=0.4208092188083745 kvar=-0.0 Phases=1
New Generator.pv_load_p6ulv16336_1 conn=wye bus1=p6ulv16336.1 kV=0.12 model=7 kW=0.39526036140419535 kvar=-0.0 Phases=1
New Generator.pv_load_p6ulv16337_1 conn=wye bus1=p6ulv16337.1 kV=0.12 model=7 kW=0.23294847031544538 kvar=-0.0 Phases=1
New Generator.pv_load_p6ulv16338_1 conn=wye bus1=p6ulv16338.1 kV=0.12 model=7 kW=0.14277437925698117 kvar=-0.0 Phases=1
New Generator.pv_load_p6ulv16338_2 conn=wye bus1=p6ulv16338.2 kV=0.12 model=7 kW=0.14277437925698117 kvar=-0.0 Phases=1
New Generator.pv_load_p6ulv16341_2 conn=wye bus1=p6ulv16341.2 kV=0.12 model=7 kW=0.7905192199344256 kvar=-0.0 Phases=1
New Generator.pv_load_p6ulv16343_2 conn=wye bus1=p6ulv16343.2 kV=0.12 model=7 kW=0.38173449571962986 kvar=-0.0 Phases=1
New Generator.pv_load_p6ulv16345_1 conn=wye bus1=p6ulv16345.1 kV=0.12 model=7 kW=1.9898201583357173 kvar=-0.0 Phases=1
New Generator.pv_load_p6ulv16345_2 conn=wye bus1=p6ulv16345.2 kV=0.12 model=7 kW=1.9898201583357173 kvar=-0.0 Phases=1
New Generator.pv_load_p6ulv16348_1 conn=wye bus1=p6ulv16348.1 kV=0.12 model=7 kW=0.14427740350932938 kvar=-0.0 Phases=1
New Generator.pv_load_p6ulv16349_1 conn=wye bus1=p6ulv16349.1 kV=0.12 model=7 kW=0.22543410049068682 kvar=-0.0 Phases=1
New Generator.pv_load_p6ulv16350_2 conn=wye bus1=p6ulv16350.2 kV=0.12 model=7 kW=0.16531763901865335 kvar=-0.0 Phases=1
New Generator.pv_load_p6ulv16356_1 conn=wye bus1=p6ulv16356.1 kV=0.12 model=7 kW=0.41479772294856765 kvar=-0.0 Phases=1
New Generator.pv_load_p6ulv16359_2 conn=wye bus1=p6ulv16359.2 kV=0.12 model=7 kW=2.6015048908107135 kvar=-0.0 Phases=1
New Generator.pv_load_p6ulv16364_1 conn=wye bus1=p6ulv16364.1 kV=0.12 model=7 kW=0.24346858807010738 kvar=-0.0 Phases=1
New Generator.pv_load_p6ulv16367_1 conn=wye bus1=p6ulv16367.1 kV=0.12 model=7 kW=0.20138661417749446 kvar=-0.0 Phases=1
New Generator.pv_load_p6ulv16369_2 conn=wye bus1=p6ulv16369.2 kV=0.12 model=7 kW=1.9086649642283249 kvar=-0.0 Phases=1
New Generator.pv_load_p6ulv16372_2 conn=wye bus1=p6ulv16372.2 kV=0.12 model=7 kW=0.2449714620350591 kvar=-0.0 Phases=1
New Generator.pv_load_p6ulv16379_1 conn=wye bus1=p6ulv16379.1 kV=0.12 model=7 kW=0.7379186311611158 kvar=-0.0 Phases=1
New Generator.pv_load_p6ulv16418_1 conn=wye bus1=p6ulv16418.1 kV=0.12 model=7 kW=0.18335212659807393 kvar=-0.0 Phases=1
New Generator.pv_load_p6ulv16419_1 conn=wye bus1=p6ulv16419.1 kV=0.12 model=7 kW=0.3005777987382725 kvar=-0.0 Phases=1
New Generator.pv_load_p6ulv16421_1 conn=wye bus1=p6ulv16421.1 kV=0.12 model=7 kW=0.548555008703235 kvar=-0.0 Phases=1
New Generator.pv_load_p6ulv16422_1 conn=wye bus1=p6ulv16422.1 kV=0.12 model=7 kW=0.22693697445563854 kvar=-0.0 Phases=1
New Generator.pv_load_p6ulv16422_2 conn=wye bus1=p6ulv16422.2 kV=0.12 model=7 kW=0.22693697445563854 kvar=-0.0 Phases=1
New Generator.pv_load_p6ulv16425_1 conn=wye bus1=p6ulv16425.1 kV=0.12 model=7 kW=0.2449714620350591 kvar=-0.0 Phases=1
New Generator.pv_load_p6ulv16432_1 conn=wye bus1=p6ulv16432.1 kV=0.12 model=7 kW=0.22392972365177016 kvar=-0.0 Phases=1
New Generator.pv_load_p6ulv16438_1 conn=wye bus1=p6ulv16438.1 kV=0.12 model=7 kW=0.22242684968681845 kvar=-0.0 Phases=1
New Generator.pv_load_p6ulv16440_2 conn=wye bus1=p6ulv16440.2 kV=0.12 model=7 kW=0.22242684968681845 kvar=-0.0 Phases=1
New Generator.pv_load_p6ulv16441_2 conn=wye bus1=p6ulv16441.2 kV=0.12 model=7 kW=0.21942110175691504 kvar=-0.0 Phases=1
New Generator.pv_load_p6ulv16443_2 conn=wye bus1=p6ulv16443.2 kV=0.12 model=7 kW=0.3261266561424516 kvar=-0.0 Phases=1
New Generator.pv_load_p6ulv16445_1 conn=wye bus1=p6ulv16445.1 kV=0.12 model=7 kW=0.2720231934041899 kvar=-0.0 Phases=1
New Generator.pv_load_p6ulv16445_2 conn=wye bus1=p6ulv16445.2 kV=0.12 model=7 kW=0.2720231934041899 kvar=-0.0 Phases=1
New Generator.pv_load_p6ulv16446_2 conn=wye bus1=p6ulv16446.2 kV=0.12 model=7 kW=0.3050864206331276 kvar=-0.0 Phases=1
New Generator.pv_load_p6ulv16447_2 conn=wye bus1=p6ulv16447.2 kV=0.12 model=7 kW=0.7860105980395706 kvar=-0.0 Phases=1
New Generator.pv_load_p6ulv21516_1 conn=wye bus1=p6ulv21516.1 kV=0.12 model=7 kW=0.16682051298360506 kvar=-0.0 Phases=1
New Generator.pv_load_p6ulv21517_2 conn=wye bus1=p6ulv21517.2 kV=0.12 model=7 kW=0.2675145715093348 kvar=-0.0 Phases=1
New Generator.pv_load_p6ulv21535_1 conn=wye bus1=p6ulv21535.1 kV=0.12 model=7 kW=0.32762953010740326 kvar=-0.0 Phases=1
New Generator.pv_load_p6ulv21535_2 conn=wye bus1=p6ulv21535.2 kV=0.12 model=7 kW=0.32762953010740326 kvar=-0.0 Phases=1
New Generator.pv_load_p6ulv21536_1 conn=wye bus1=p6ulv21536.1 kV=0.12 model=7 kW=0.39075173950934017 kvar=-0.0 Phases=1
New Generator.pv_load_p6ulv21537_2 conn=wye bus1=p6ulv21537.2 kV=0.12 model=7 kW=0.7634674885652949 kvar=-0.0 Phases=1
New Generator.pv_load_p6ulv21539_1 conn=wye bus1=p6ulv21539.1 kV=0.12 model=7 kW=0.1803463786681705 kvar=-0.0 Phases=1
New Generator.pv_load_p6ulv21539_2 conn=wye bus1=p6ulv21539.2 kV=0.12 model=7 kW=0.1803463786681705 kvar=-0.0 Phases=1
New Generator.pv_load_p6ulv21546_2 conn=wye bus1=p6ulv21546.2 kV=0.12 model=7 kW=0.10520222955839537 kvar=-0.0 Phases=1
New Generator.pv_load_p6ulv21751_2 conn=wye bus1=p6ulv21751.2 kV=0.12 model=7 kW=0.22843984842059023 kvar=-0.0 Phases=1
New Generator.pv_load_p6ulv21754_1 conn=wye bus1=p6ulv21754.1 kV=0.12 model=7 kW=0.1698262609135085 kvar=-0.0 Phases=1
New Generator.pv_load_p6ulv21756_2 conn=wye bus1=p6ulv21756.2 kV=0.12 model=7 kW=0.1352600094322226 kvar=-0.0 Phases=1
New Generator.pv_load_p6ulv21757_2 conn=wye bus1=p6ulv21757.2 kV=0.12 model=7 kW=0.09317908755138515 kvar=-0.0 Phases=1
New Generator.pv_load_p6ulv21760_2 conn=wye bus1=p6ulv21760.2 kV=0.12 model=7 kW=0.14427740350932938 kvar=-0.0 Phases=1
New Generator.pv_load_p6ulv21761_1 conn=wye bus1=p6ulv21761.1 kV=0.12 model=7 kW=0.20890098400225304 kvar=-0.0 Phases=1
New Generator.pv_load_p6ulv21768_1 conn=wye bus1=p6ulv21768.1 kV=0.12 model=7 kW=0.12924851357241576 kvar=-0.0 Phases=1
New Generator.pv_load_p6ulv21771_1 conn=wye bus1=p6ulv21771.1 kV=0.12 model=7 kW=0.1818492526331222 kvar=-0.0 Phases=1
New Generator.pv_load_p6ulv21773_2 conn=wye bus1=p6ulv21773.2 kV=0.12 model=7 kW=0.12774563960746405 kvar=-0.0 Phases=1
New Generator.pv_load_p6ulv21774_1 conn=wye bus1=p6ulv21774.1 kV=0.12 model=7 kW=0.1818492526331222 kvar=-0.0 Phases=1
New Generator.pv_load_p6ulv21775_1 conn=wye bus1=p6ulv21775.1 kV=0.12 model=7 kW=0.11421962363550214 kvar=-0.0 Phases=1
New Generator.pv_load_p6ulv21776_2 conn=wye bus1=p6ulv21776.2 kV=0.12 model=7 kW=0.22392972365177016 kvar=-0.0 Phases=1
New Generator.pv_load_p6ulv21782_1 conn=wye bus1=p6ulv21782.1 kV=0.12 model=7 kW=0.13976863132707776 kvar=-0.0 Phases=1
New Generator.pv_load_p6ulv21783_1 conn=wye bus1=p6ulv21783.1 kV=0.12 model=7 kW=0.21340960589710817 kvar=-0.0 Phases=1
New Generator.pv_load_p6ulv21783_2 conn=wye bus1=p6ulv21783.2 kV=0.12 model=7 kW=0.21340960589710817 kvar=-0.0 Phases=1
New Generator.pv_load_p6ulv21799_2 conn=wye bus1=p6ulv21799.2 kV=0.12 model=7 kW=0.3832373696845817 kvar=-0.0 Phases=1
New Generator.pv_load_p6ulv21801_2 conn=wye bus1=p6ulv21801.2 kV=0.12 model=7 kW=0.20138661417749446 kvar=-0.0 Phases=1
New Generator.pv_load_p6ulv21802_1 conn=wye bus1=p6ulv21802.1 kV=0.12 model=7 kW=0.07815019761447155 kvar=-0.0 Phases=1
New Generator.pv_load_p6ulv21804_1 conn=wye bus1=p6ulv21804.1 kV=0.12 model=7 kW=0.28554905908875533 kvar=-0.0 Phases=1
New Generator.pv_load_p6ulv21805_1 conn=wye bus1=p6ulv21805.1 kV=0.12 model=7 kW=0.2539887058247694 kvar=-0.0 Phases=1
New Generator.pv_load_p6ulv21807_2 conn=wye bus1=p6ulv21807.2 kV=0.12 model=7 kW=0.18335212659807393 kvar=-0.0 Phases=1
New Generator.pv_load_p6ulv21809_2 conn=wye bus1=p6ulv21809.2 kV=0.12 model=7 kW=0.21491247986205989 kvar=-0.0 Phases=1
New Generator.pv_load_p6ulv21811_1 conn=wye bus1=p6ulv21811.1 kV=0.12 model=7 kW=0.21040385796720473 kvar=-0.0 Phases=1
New Generator.pv_load_p6ulv21812_1 conn=wye bus1=p6ulv21812.1 kV=0.12 model=7 kW=0.26150307564952796 kvar=-0.0 Phases=1
New Generator.pv_load_p6ulv21817_2 conn=wye bus1=p6ulv21817.2 kV=0.12 model=7 kW=0.2043923621073979 kvar=-0.0 Phases=1
New Generator.pv_load_p6ulv21818_2 conn=wye bus1=p6ulv21817.2 kV=0.12 model=7 kW=0.3050864206331276 kvar=-0.0 Phases=1
New Generator.pv_load_p6ulv21826_2 conn=wye bus1=p6ulv21826.2 kV=0.12 model=7 kW=0.17583775677331534 kvar=-0.0 Phases=1
New Generator.pv_load_p6ulv21827_1 conn=wye bus1=p6ulv21827.1 kV=0.12 model=7 kW=0.16682051298360506 kvar=-0.0 Phases=1
New Generator.pv_load_p6ulv21830_2 conn=wye bus1=p6ulv21830.2 kV=0.12 model=7 kW=0.26150307564952796 kvar=-0.0 Phases=1
New Generator.pv_load_p6ulv21832_1 conn=wye bus1=p6ulv21832.1 kV=0.12 model=7 kW=0.2539887058247694 kvar=-0.0 Phases=1
New Generator.pv_load_p6ulv23473_1 conn=wye bus1=p6ulv23473.1 kV=0.12 model=7 kW=0.35768700940643755 kvar=-0.0 Phases=1
New Generator.pv_load_p6ulv23478_2 conn=wye bus1=p6ulv23478.2 kV=0.12 model=7 kW=0.23294847031544538 kvar=-0.0 Phases=1
New Generator.pv_load_p6ulv23480_2 conn=wye bus1=p6ulv23480.2 kV=0.12 model=7 kW=0.2164153538270116 kvar=-0.0 Phases=1
New Generator.pv_load_p6ulv23485_1 conn=wye bus1=p6ulv23485.1 kV=0.12 model=7 kW=0.12173399346026069 kvar=-0.0 Phases=1
New Generator.pv_load_p6ulv23492_1 conn=wye bus1=p6ulv23492.1 kV=0.12 model=7 kW=0.18786074849292905 kvar=-0.0 Phases=1
New Generator.pv_load_p6ulv23493_2 conn=wye bus1=p6ulv23493.2 kV=0.12 model=7 kW=0.3261266561424516 kvar=-0.0 Phases=1
New Generator.pv_load_p6ulv23495_2 conn=wye bus1=p6ulv23495.2 kV=0.12 model=7 kW=0.19387224435273592 kvar=-0.0 Phases=1
New Generator.pv_load_p6ulv23501_2 conn=wye bus1=p6ulv23501.2 kV=0.12 model=7 kW=0.30959504252798276 kvar=-0.0 Phases=1
New Generator.pv_load_p6ulv23502_1 conn=wye bus1=p6ulv23502.1 kV=0.12 model=7 kW=0.22693697445563854 kvar=-0.0 Phases=1
New Generator.pv_load_p6ulv23505_2 conn=wye bus1=p6ulv23505.2 kV=0.12 model=7 kW=0.3231209082125482 kvar=-0.0 Phases=1
New Generator.pv_load_p6ulv23508_1 conn=wye bus1=p6ulv23508.1 kV=0.12 model=7 kW=0.1563003952289431 kvar=-0.0 Phases=1
New Generator.pv_load_p6ulv23509_1 conn=wye bus1=p6ulv23509.1 kV=0.12 model=7 kW=0.2795375632289485 kvar=-0.0 Phases=1
New Generator.pv_load_p6ulv23511_2 conn=wye bus1=p6ulv23511.2 kV=0.12 model=7 kW=0.18335212659807393 kvar=-0.0 Phases=1
New Generator.pv_load_p6ulv23513_2 conn=wye bus1=p6ulv23513.2 kV=0.12 model=7 kW=0.1803463786681705 kvar=-0.0 Phases=1
New Generator.pv_load_p6ulv23516_2 conn=wye bus1=p6ulv23516.2 kV=0.12 model=7 kW=0.18786074849292905 kvar=-0.0 Phases=1
New Generator.pv_load_p6ulv23518_2 conn=wye bus1=p6ulv23518.2 kV=0.12 model=7 kW=0.15930614315884653 kvar=-0.0 Phases=1
New Generator.pv_load_p6ulv23519_2 conn=wye bus1=p6ulv23519.2 kV=0.12 model=7 kW=0.36670425319614786 kvar=-0.0 Phases=1
New Generator.pv_load_p6ulv23522_2 conn=wye bus1=p6ulv23522.2 kV=0.12 model=7 kW=0.20739811003730133 kvar=-0.0 Phases=1
New Generator.pv_load_p6ulv23523_2 conn=wye bus1=p6ulv23523.2 kV=0.12 model=7 kW=0.2600002016845762 kvar=-0.0 Phases=1
New Generator.pv_load_p6ulv23526_1 conn=wye bus1=p6ulv23526.1 kV=0.12 model=7 kW=0.14427740350932938 kvar=-0.0 Phases=1
New Generator.pv_load_p6ulv23527_2 conn=wye bus1=p6ulv23527.2 kV=0.12 model=7 kW=0.3156065383877897 kvar=-0.0 Phases=1
New Generator.pv_load_p6ulv23528_2 conn=wye bus1=p6ulv23528.2 kV=0.12 model=7 kW=0.1698262609135085 kvar=-0.0 Phases=1
New Generator.pv_load_p6ulv23535_1 conn=wye bus1=p6ulv23535.1 kV=0.12 model=7 kW=0.14878602540418454 kvar=-0.0 Phases=1
New Generator.pv_load_p6ulv23536_2 conn=wye bus1=p6ulv23536.2 kV=0.12 model=7 kW=0.16381476505370163 kvar=-0.0 Phases=1
New Generator.pv_load_p6ulv23537_2 conn=wye bus1=p6ulv23537.2 kV=0.12 model=7 kW=0.1563003952289431 kvar=-0.0 Phases=1
New Generator.pv_load_p6ulv23541_2 conn=wye bus1=p6ulv23541.2 kV=0.12 model=7 kW=0.16381476505370163 kvar=-0.0 Phases=1
New Generator.pv_load_p6ulv23544_2 conn=wye bus1=p6ulv23544.2 kV=0.12 model=7 kW=0.22092397572186676 kvar=-0.0 Phases=1
New Generator.pv_load_p6ulv23545_1 conn=wye bus1=p6ulv23545.1 kV=0.12 model=7 kW=0.22392972365177016 kvar=-0.0 Phases=1
New Generator.pv_load_p6ulv23545_2 conn=wye bus1=p6ulv23545.2 kV=0.12 model=7 kW=0.22392972365177016 kvar=-0.0 Phases=1
New Generator.pv_load_p6ulv23546_2 conn=wye bus1=p6ulv23546.2 kV=0.12 model=7 kW=0.33213815200225844 kvar=-0.0 Phases=1
New Generator.pv_load_p6ulv23549_2 conn=wye bus1=p6ulv23549.2 kV=0.12 model=7 kW=0.2675145715093348 kvar=-0.0 Phases=1
New Generator.pv_load_p6ulv23557_2 conn=wye bus1=p6ulv23557.2 kV=0.12 model=7 kW=0.1698262609135085 kvar=-0.0 Phases=1
New Generator.pv_load_p6ulv23559_2 conn=wye bus1=p6ulv23559.2 kV=0.12 model=7 kW=0.4373408324228433 kvar=-0.0 Phases=1
New Generator.pv_load_p6ulv23560_1 conn=wye bus1=p6ulv23560.1 kV=0.12 model=7 kW=0.308092168563031 kvar=-0.0 Phases=1
New Generator.pv_load_p6ulv23565_1 conn=wye bus1=p6ulv23565.1 kV=0.12 model=7 kW=0.1923693703877842 kvar=-0.0 Phases=1
New Generator.pv_load_p6ulv23572_2 conn=wye bus1=p6ulv23572.2 kV=0.12 model=7 kW=0.2870519330537071 kvar=-0.0 Phases=1
New Generator.pv_load_p6ulv23573_2 conn=wye bus1=p6ulv23573.2 kV=0.12 model=7 kW=0.24196571410515566 kvar=-0.0 Phases=1
New Generator.pv_load_p6ulv23574_1 conn=wye bus1=p6ulv23574.1 kV=0.12 model=7 kW=0.29757205080836907 kvar=-0.0 Phases=1
New Generator.pv_load_p6ulv23576_1 conn=wye bus1=p6ulv23576.1 kV=0.12 model=7 kW=0.21340960589710817 kvar=-0.0 Phases=1
New Generator.pv_load_p6ulv23576_2 conn=wye bus1=p6ulv23576.2 kV=0.12 model=7 kW=0.21340960589710817 kvar=-0.0 Phases=1
New Generator.pv_load_p6ulv23578_2 conn=wye bus1=p6ulv23578.2 kV=0.12 model=7 kW=0.22392972365177016 kvar=-0.0 Phases=1
New Generator.pv_load_p6ulv23583_1 conn=wye bus1=p6ulv23583.1 kV=0.12 model=7 kW=0.2795375632289485 kvar=-0.0 Phases=1
New Generator.pv_load_p6ulv23585_1 conn=wye bus1=p6ulv23585.1 kV=0.12 model=7 kW=0.12624261535511583 kvar=-0.0 Phases=1
New Generator.pv_load_p6ulv23585_2 conn=wye bus1=p6ulv23585.2 kV=0.12 model=7 kW=0.12624261535511583 kvar=-0.0 Phases=1