New Line.l(r:p6udm1105-p6ulv972) Units=km Length=0.0355373 bus1=p6udm1105.1.2 bus2=p6ulv972.1.2 switch=n enabled=y phases=2 Linecode=1P_UG_AL_1/0_Brenau_2

New Line.l(r:p6udm1105-p6udt326lv) Units=km Length=0.0168328 bus1=p6udt326lv.1.2 bus2=p6udm1105.1.2 switch=n enabled=y phases=2 Linecode=1P_UG_AL_1/0_Brenau_2

New Line.l(r:p6udm1106-p6ulv973) Units=km Length=0.00590161 bus1=p6udm1106.1.2 bus2=p6ulv973.1.2 switch=n enabled=y phases=2 Linecode=1P_UG_AL_1/0_Brenau_2

New Line.l(r:p6udm1106-p6udt326lv) Units=km Length=0.00842057 bus1=p6udt326lv.1.2 bus2=p6udm1106.1.2 switch=n enabled=y phases=2 Linecode=1P_UG_AL_1/0_Brenau_2

New Line.l(r:p6udm2564-p6ulv2311) Units=km Length=0.0257362 bus1=p6udm2564.1.2 bus2=p6ulv2311.1.2 switch=n enabled=y phases=2 Linecode=1P_OH_AL_2/0_Rucina_2

New Line.l(r:p6udm2563-p6ulv2310) Units=km Length=0.0311645 bus1=p6udm2563.1.2 bus2=p6ulv2310.1.2 switch=n enabled=y phases=2 Linecode=1P_OH_AL_4/0_Zuzara_2

New Line.l(r:p6udm2563-p6udm2564) Units=km Length=0.0173632 bus1=p6udm2564.1.2 bus2=p6udm2563.1.2 switch=n enabled=y phases=2 Linecode=1P_OH_AL_2/0_Rucina_2

New Line.l(r:p6udm2564-p6udt765lv) Units=km Length=0.030294600000000005 bus1=p6udt765lv.1.2 bus2=p6udm2564.1.2 switch=n enabled=y phases=2 Linecode=1P_OH_AL_4/0_Zuzara_2

New Line.l(r:p6udm2565-p6ulv2312) Units=km Length=0.0282018 bus1=p6udm2565.1.2 bus2=p6ulv2312.1.2 switch=n enabled=y phases=2 Linecode=1P_OH_AL_4/0_Zuzara_2

New Line.l(r:p6udm2566-p6ulv2313) Units=km Length=0.0157924 bus1=p6udm2566.1.2 bus2=p6ulv2313.1.2 switch=n enabled=y phases=2 Linecode=1P_OH_AL_2/0_Rucina_2

New Line.l(r:p6udm2566-p6ulv2314) Units=km Length=0.0190407 bus1=p6udm2566.1.2 bus2=p6ulv2314.1.2 switch=n enabled=y phases=2 Linecode=1P_OH_AL_2/0_Rucina_2

New Line.l(r:p6udm2565-p6udm2566) Units=km Length=0.0198899 bus1=p6udm2565.1.2 bus2=p6udm2566.1.2 switch=n enabled=y phases=2 Linecode=1P_OH_AL_2/0_Rucina_2

New Line.l(r:p6udm2565-p6udt765lv) Units=km Length=0.0198808 bus1=p6udt765lv.1.2 bus2=p6udm2565.1.2 switch=n enabled=y phases=2 Linecode=1P_OH_AL_2/0_Rucina_2

New Line.l(r:p6udm2568-p6ulv2315) Units=km Length=0.0164112 bus1=p6udm2568.1.2 bus2=p6ulv2315.1.2 switch=n enabled=y phases=2 Linecode=1P_OH_AL_2/0_Rucina_2

New Line.l(r:p6udm2568-p6ulv2316) Units=km Length=0.0233675 bus1=p6udm2568.1.2 bus2=p6ulv2316.1.2 switch=n enabled=y phases=2 Linecode=1P_OH_AL_2/0_Rucina_2

New Line.l(r:p6udm2568-p6udt766lv) Units=km Length=0.0158302 bus1=p6udt766lv.1.2 bus2=p6udm2568.1.2 switch=n enabled=y phases=2 Linecode=1P_OH_AL_2/0_Rucina_2

New Line.l(r:p6udm2570-p6ulv2321) Units=km Length=0.031094100000000003 bus1=p6udm2570.1.2 bus2=p6ulv2321.1.2 switch=n enabled=y phases=2 Linecode=1P_OH_AL_4/0_Zuzara_2

New Line.l(r:p6udm2570-p6udt766lv) Units=km Length=0.0225293 bus1=p6udt766lv.1.2 bus2=p6udm2570.1.2 switch=n enabled=y phases=2 Linecode=1P_OH_AL_2/0_Rucina_2

New Line.l(r:p6udm2581-p6ulv2332) Units=km Length=0.00552399 bus1=p6udm2581.1.2 bus2=p6ulv2332.1.2 switch=n enabled=y phases=2 Linecode=1P_UG_AL_1/0_Brenau_2

New Line.l(r:p6udm2580-p6ulv2331) Units=km Length=0.004844130000000001 bus1=p6udm2580.1.2 bus2=p6ulv2331.1.2 switch=n enabled=y phases=2 Linecode=1P_UG_AL_1/0_Brenau_2

New Line.l(r:p6udm2579-p6ulv2330) Units=km Length=0.0110916 bus1=p6udm2579.1.2 bus2=p6ulv2330.1.2 switch=n enabled=y phases=2 Linecode=1P_UG_AL_1/0_Brenau_2

New Line.l(r:p6udm2578-p6ulv2327) Units=km Length=0.00359235 bus1=p6udm2578.1.2 bus2=p6ulv2327.1.2 switch=n enabled=y phases=2 Linecode=1P_UG_AL_1/0_Brenau_2

New Line.l(r:p6udm2578-p6udm2579) Units=km Length=0.0228529 bus1=p6udm2579.1.2 bus2=p6udm2578.1.2 switch=n enabled=y phases=2 Linecode=1P_UG_AL_1/0_Brenau_2

New Line.l(r:p6udm2579-p6udm2580) Units=km Length=0.015450900000000002 bus1=p6udm2580.1.2 bus2=p6udm2579.1.2 switch=n enabled=y phases=2 Linecode=1P_UG_AL_1/0_Brenau_2

New Line.l(r:p6udm2580-p6udm2581) Units=km Length=0.007725060000000001 bus1=p6udm2581.1.2 bus2=p6udm2580.1.2 switch=n enabled=y phases=2 Linecode=1P_UG_AL_1/0_Brenau_2

New Line.l(r:p6udm2581-p6udt769lv) Units=km Length=0.00982229 bus1=p6udt769lv.1.2 bus2=p6udm2581.1.2 switch=n enabled=y phases=2 Linecode=1P_UG_AL_1/0_Brenau_2

New Line.l(r:p6udm2582-p6ulv2333) Units=km Length=0.0130836 bus1=p6udm2582.1.2 bus2=p6ulv2333.1.2 switch=n enabled=y phases=2 Linecode=1P_UG_AL_1/0_Brenau_2

New Line.l(r:p6udm2582-p6ulv2335) Units=km Length=0.00590557 bus1=p6udm2582.1.2 bus2=p6ulv2335.1.2 switch=n enabled=y phases=2 Linecode=1P_UG_AL_1/0_Brenau_2

New Line.l(r:p6udm2583-p6ulv2334) Units=km Length=0.0109621 bus1=p6udm2583.1.2 bus2=p6ulv2334.1.2 switch=n enabled=y phases=2 Linecode=1P_UG_AL_1/0_Brenau_2

New Line.l(r:p6udm2585-p6ulv2336) Units=km Length=0.0114795 bus1=p6udm2585.1.2 bus2=p6ulv2336.1.2 switch=n enabled=y phases=2 Linecode=1P_UG_AL_1/0_Brenau_2

New Line.l(r:p6udm2583-p6udm2585) Units=km Length=0.0194618 bus1=p6udm2583.1.2 bus2=p6udm2585.1.2 switch=n enabled=y phases=2 Linecode=1P_UG_AL_1/0_Brenau_2

New Line.l(r:p6udm2582-p6udm2583) Units=km Length=0.00973088 bus1=p6udm2582.1.2 bus2=p6udm2583.1.2 switch=n enabled=y phases=2 Linecode=1P_UG_AL_1/0_Brenau_2

New Line.l(r:p6udm2582-p6udt769lv) Units=km Length=0.019546 bus1=p6udt769lv.1.2 bus2=p6udm2582.1.2 switch=n enabled=y phases=2 Linecode=1P_UG_AL_1/0_Brenau_2

New Line.l(r:p6udm2592-p6ulv2368) Units=km Length=0.0118284 bus1=p6udm2592.1.2 bus2=p6ulv2368.1.2 switch=n enabled=y phases=2 Linecode=1P_UG_AL_1/0_Brenau_2

New Line.l(r:p6udm2588-p6ulv2339) Units=km Length=0.00546495 bus1=p6udm2588.1.2 bus2=p6ulv2339.1.2 switch=n enabled=y phases=2 Linecode=1P_UG_AL_1/0_Brenau_2

New Line.l(r:p6udm2589-p6ulv2340) Units=km Length=0.0108503 bus1=p6udm2589.1.2 bus2=p6ulv2340.1.2 switch=n enabled=y phases=2 Linecode=1P_UG_AL_1/0_Brenau_2

New Line.l(r:p6udm2586-p6ulv2337) Units=km Length=0.00851009 bus1=p6udm2586.1.2 bus2=p6ulv2337.1.2 switch=n enabled=y phases=2 Linecode=1P_UG_AL_1/0_Brenau_2

New Line.l(r:p6udm2586-p6ulv2338) Units=km Length=0.00411894 bus1=p6udm2586.1.2 bus2=p6ulv2338.1.2 switch=n enabled=y phases=2 Linecode=1P_UG_AL_1/0_Brenau_2

New Line.l(r:p6udm2590-p6ulv2342) Units=km Length=0.0229847 bus1=p6udm2590.1.2 bus2=p6ulv2342.1.2 switch=n enabled=y phases=2 Linecode=1P_UG_AL_1/0_Brenau_2

New Line.l(r:p6udm2586-p6udm2590) Units=km Length=0.0141114 bus1=p6udm2586.1.2 bus2=p6udm2590.1.2 switch=n enabled=y phases=2 Linecode=1P_UG_AL_1/0_Brenau_2

New Line.l(r:p6udm2586-p6udm2589) Units=km Length=0.0165363 bus1=p6udm2589.1.2 bus2=p6udm2586.1.2 switch=n enabled=y phases=2 Linecode=1P_UG_AL_1/0_Brenau_2

New Line.l(r:p6udm2588-p6udm2589) Units=km Length=0.0094838 bus1=p6udm2588.1.2 bus2=p6udm2589.1.2 switch=n enabled=y phases=2 Linecode=1P_UG_AL_1/0_Brenau_2

New Line.l(r:p6udm2588-p6udm2592) Units=km Length=0.0189591 bus1=p6udm2592.1.2 bus2=p6udm2588.1.2 switch=n enabled=y phases=2 Linecode=1P_UG_AL_2/0_Converse_2

New Line.l(r:p6udm2593-p6ulv2369) Units=km Length=0.0087341 bus1=p6udm2593.1.2 bus2=p6ulv2369.1.2 switch=n enabled=y phases=2 Linecode=1P_UG_AL_1/0_Brenau_2

New Line.l(r:p6udm2592-p6udm2593) Units=km Length=0.0194806 bus1=p6udm2592.1.2 bus2=p6udm2593.1.2 switch=n enabled=y phases=2 Linecode=1P_UG_AL_1/0_Brenau_2

New Line.l(r:p6udm2592-p6udt770lv) Units=km Length=0.00968753 bus1=p6udt770lv.1.2 bus2=p6udm2592.1.2 switch=n enabled=y phases=2 Linecode=1P_UG_AL_4/0_Sweetbriar_2

New Line.l(r:p6udm2595-p6ulv2371) Units=km Length=0.00578413 bus1=p6udm2595.1.2 bus2=p6ulv2371.1.2 switch=n enabled=y phases=2 Linecode=1P_UG_AL_1/0_Brenau_2

New Line.l(r:p6udm2591-p6ulv2344) Units=km Length=0.013527 bus1=p6udm2591.1.2 bus2=p6ulv2344.1.2 switch=n enabled=y phases=2 Linecode=1P_UG_AL_1/0_Brenau_2

New Line.l(r:p6udm2596-p6ulv2372) Units=km Length=0.00877679 bus1=p6udm2596.1.2 bus2=p6ulv2372.1.2 switch=n enabled=y phases=2 Linecode=1P_UG_AL_1/0_Brenau_2

New Line.l(r:p6udm2594-p6ulv2370) Units=km Length=0.00891958 bus1=p6udm2594.1.2 bus2=p6ulv2370.1.2 switch=n enabled=y phases=2 Linecode=1P_UG_AL_1/0_Brenau_2

New Line.l(r:p6udm2600-p6ulv2377) Units=km Length=0.0185715 bus1=p6udm2600.1.2 bus2=p6ulv2377.1.2 switch=n enabled=y phases=2 Linecode=1P_UG_AL_1/0_Brenau_2

New Line.l(r:p6udm2599-p6ulv2375) Units=km Length=0.016859600000000002 bus1=p6udm2599.1.2 bus2=p6ulv2375.1.2 switch=n enabled=y phases=2 Linecode=1P_UG_AL_1/0_Brenau_2

New Line.l(r:p6udm2597-p6ulv2373) Units=km Length=0.0045679 bus1=p6udm2597.1.2 bus2=p6ulv2373.1.2 switch=n enabled=y phases=2 Linecode=1P_UG_AL_1/0_Brenau_2

New Line.l(r:p6udm2597-p6udm2599) Units=km Length=0.00797573 bus1=p6udm2599.1.2 bus2=p6udm2597.1.2 switch=n enabled=y phases=2 Linecode=1P_UG_AL_1/0_Brenau_2

New Line.l(r:p6udm2598-p6ulv2374) Units=km Length=0.0100856 bus1=p6udm2598.1.2 bus2=p6ulv2374.1.2 switch=n enabled=y phases=2 Linecode=1P_UG_AL_1/0_Brenau_2

New Line.l(r:p6udm2598-p6udm2599) Units=km Length=0.00885299 bus1=p6udm2599.1.2 bus2=p6udm2598.1.2 switch=n enabled=y phases=2 Linecode=1P_UG_AL_1/0_Brenau_2

New Line.l(r:p6udm2599-p6udm2600) Units=km Length=0.0133927 bus1=p6udm2600.1.2 bus2=p6udm2599.1.2 switch=n enabled=y phases=2 Linecode=1P_UG_AL_1/0_Brenau_2

New Line.l(r:p6udm2594-p6udm2600) Units=km Length=0.00765467 bus1=p6udm2594.1.2 bus2=p6udm2600.1.2 switch=n enabled=y phases=2 Linecode=1P_UG_AL_1/0_Brenau_2

New Line.l(r:p6udm2594-p6udm2596) Units=km Length=0.04333510000000001 bus1=p6udm2596.1.2 bus2=p6udm2594.1.2 switch=n enabled=y phases=2 Linecode=1P_UG_AL_1/0_Brenau_2

New Line.l(r:p6udm2591-p6udm2596) Units=km Length=0.0241442 bus1=p6udm2591.1.2 bus2=p6udm2596.1.2 switch=n enabled=y phases=2 Linecode=1P_UG_AL_1/0_Brenau_2

New Line.l(r:p6udm2591-p6udm2595) Units=km Length=0.0148562 bus1=p6udm2595.1.2 bus2=p6udm2591.1.2 switch=n enabled=y phases=2 Linecode=1P_UG_AL_1/0_Brenau_2

New Line.l(r:p6udm2595-p6udt770lv) Units=km Length=0.00969456 bus1=p6udt770lv.1.2 bus2=p6udm2595.1.2 switch=n enabled=y phases=2 Linecode=1P_UG_AL_2/0_Converse_2

New Line.l(r:p6udm2602-p6ulv2343) Units=km Length=0.0108563 bus1=p6udm2602.1.2 bus2=p6ulv2343.1.2 switch=n enabled=y phases=2 Linecode=1P_UG_AL_1/0_Brenau_2

New Line.l(r:p6udm2601-p6ulv2341) Units=km Length=0.0227386 bus1=p6udm2601.1.2 bus2=p6ulv2341.1.2 switch=n enabled=y phases=2 Linecode=1P_UG_AL_1/0_Brenau_2

New Line.l(r:p6udm2601-p6udm2602) Units=km Length=0.0318579 bus1=p6udm2602.1.2 bus2=p6udm2601.1.2 switch=n enabled=y phases=2 Linecode=1P_UG_AL_1/0_Brenau_2

New Line.l(r:p6udm2602-p6udt771lv) Units=km Length=0.027075 bus1=p6udt771lv.1.2 bus2=p6udm2602.1.2 switch=n enabled=y phases=2 Linecode=1P_UG_AL_1/0_Brenau_2

New Line.l(r:p6udm2603-p6ulv2345) Units=km Length=0.0126788 bus1=p6udm2603.1.2 bus2=p6ulv2345.1.2 switch=n enabled=y phases=2 Linecode=1P_UG_AL_1/0_Brenau_2

New Line.l(r:p6udm2604-p6ulv2346) Units=km Length=0.010246 bus1=p6udm2604.1.2 bus2=p6ulv2346.1.2 switch=n enabled=y phases=2 Linecode=1P_UG_AL_1/0_Brenau_2

New Line.l(r:p6udm2603-p6udm2604) Units=km Length=0.0647859 bus1=p6udm2603.1.2 bus2=p6udm2604.1.2 switch=n enabled=y phases=2 Linecode=1P_UG_AL_1/0_Brenau_2

New Line.l(r:p6udm2603-p6udt771lv) Units=km Length=0.006983160000000001 bus1=p6udt771lv.1.2 bus2=p6udm2603.1.2 switch=n enabled=y phases=2 Linecode=1P_UG_AL_1/0_Brenau_2

New Line.l(r:p6udm2606-p6ulv2348) Units=km Length=0.0149763 bus1=p6udm2606.1.2 bus2=p6ulv2348.1.2 switch=n enabled=y phases=2 Linecode=1P_UG_AL_1/0_Brenau_2

New Line.l(r:p6udm2605-p6ulv2347) Units=km Length=0.00681173 bus1=p6udm2605.1.2 bus2=p6ulv2347.1.2 switch=n enabled=y phases=2 Linecode=1P_UG_AL_1/0_Brenau_2

New Line.l(r:p6udm2605-p6udm2606) Units=km Length=0.0275722 bus1=p6udm2606.1.2 bus2=p6udm2605.1.2 switch=n enabled=y phases=2 Linecode=1P_UG_AL_1/0_Brenau_2

New Line.l(r:p6udm2606-p6udt772lv) Units=km Length=0.0315649 bus1=p6udt772lv.1.2 bus2=p6udm2606.1.2 switch=n enabled=y phases=2 Linecode=1P_UG_AL_1/0_Brenau_2

New Line.l(r:p6udm2607-p6ulv2352) Units=km Length=0.0219382 bus1=p6udm2607.1.2 bus2=p6ulv2352.1.2 switch=n enabled=y phases=2 Linecode=1P_UG_AL_1/0_Brenau_2

New Line.l(r:p6udm2607-p6udt772lv) Units=km Length=0.0749558 bus1=p6udt772lv.1.2 bus2=p6udm2607.1.2 switch=n enabled=y phases=2 Linecode=1P_UG_AL_1/0_Brenau_2

New Line.l(r:p6udm2608-p6ulv2354) Units=km Length=0.00775487 bus1=p6udm2608.1.2 bus2=p6ulv2354.1.2 switch=n enabled=y phases=2 Linecode=1P_UG_AL_1/0_Brenau_2

New Line.l(r:p6udm2608-p6udt772lv) Units=km Length=0.04779470000000001 bus1=p6udt772lv.1.2 bus2=p6udm2608.1.2 switch=n enabled=y phases=2 Linecode=1P_UG_AL_1/0_Brenau_2

New Line.l(r:p6udm2609-p6ulv2349) Units=km Length=0.0138594 bus1=p6udm2609.1.2 bus2=p6ulv2349.1.2 switch=n enabled=y phases=2 Linecode=1P_UG_AL_1/0_Brenau_2

New Line.l(r:p6udm2609-p6udt773lv) Units=km Length=0.0307006 bus1=p6udt773lv.1.2 bus2=p6udm2609.1.2 switch=n enabled=y phases=2 Linecode=1P_UG_AL_1/0_Brenau_2

New Line.l(r:p6udm2610-p6ulv2351) Units=km Length=0.028092 bus1=p6udm2610.1.2 bus2=p6ulv2351.1.2 switch=n enabled=y phases=2 Linecode=1P_UG_AL_1/0_Brenau_2

New Line.l(r:p6udm2611-p6ulv2353) Units=km Length=0.0123878 bus1=p6udm2611.1.2 bus2=p6ulv2353.1.2 switch=n enabled=y phases=2 Linecode=1P_UG_AL_1/0_Brenau_2

New Line.l(r:p6udm2612-p6ulv2396) Units=km Length=0.001 bus1=p6udm2612.1.2 bus2=p6ulv2396.1.2 switch=n enabled=y phases=2 Linecode=1P_UG_AL_1/0_Brenau_2

New Line.l(r:p6udm2611-p6udm2612) Units=km Length=0.04959990000000001 bus1=p6udm2611.1.2 bus2=p6udm2612.1.2 switch=n enabled=y phases=2 Linecode=1P_UG_AL_1/0_Brenau_2

New Line.l(r:p6udm2610-p6udm2611) Units=km Length=0.00730033 bus1=p6udm2610.1.2 bus2=p6udm2611.1.2 switch=n enabled=y phases=2 Linecode=1P_UG_AL_1/0_Brenau_2

New Line.l(r:p6udm2610-p6udt773lv) Units=km Length=0.00888339 bus1=p6udt773lv.1.2 bus2=p6udm2610.1.2 switch=n enabled=y phases=2 Linecode=1P_UG_AL_1/0_Brenau_2

New Line.l(r:p6udm2614-p6ulv2355) Units=km Length=0.0161443 bus1=p6udm2614.1.2 bus2=p6ulv2355.1.2 switch=n enabled=y phases=2 Linecode=1P_UG_AL_1/0_Brenau_2

New Line.l(r:p6udm2614-p6udt774lv) Units=km Length=0.026065500000000002 bus1=p6udt774lv.1.2 bus2=p6udm2614.1.2 switch=n enabled=y phases=2 Linecode=1P_UG_AL_1/0_Brenau_2

New Line.l(r:p6udm2615-p6ulv2356) Units=km Length=0.013121300000000002 bus1=p6udm2615.1.2 bus2=p6ulv2356.1.2 switch=n enabled=y phases=2 Linecode=1P_UG_AL_1/0_Brenau_2

New Line.l(r:p6udm2613-p6ulv2350) Units=km Length=0.02954 bus1=p6udm2613.1.2 bus2=p6ulv2350.1.2 switch=n enabled=y phases=2 Linecode=1P_UG_AL_1/0_Brenau_2

New Line.l(r:p6udm2613-p6udm2615) Units=km Length=0.0272546 bus1=p6udm2615.1.2 bus2=p6udm2613.1.2 switch=n enabled=y phases=2 Linecode=1P_UG_AL_1/0_Brenau_2

New Line.l(r:p6udm2615-p6udt774lv) Units=km Length=0.00817267 bus1=p6udt774lv.1.2 bus2=p6udm2615.1.2 switch=n enabled=y phases=2 Linecode=1P_UG_AL_1/0_Brenau_2

New Line.l(r:p6udm2616-p6ulv2357) Units=km Length=0.0195391 bus1=p6udm2616.1.2 bus2=p6ulv2357.1.2 switch=n enabled=y phases=2 Linecode=1P_UG_AL_1/0_Brenau_2

New Line.l(r:p6udm2617-p6ulv2359) Units=km Length=0.008685270000000002 bus1=p6udm2617.1.2 bus2=p6ulv2359.1.2 switch=n enabled=y phases=2 Linecode=1P_UG_AL_1/0_Brenau_2

New Line.l(r:p6udm2618-p6ulv2362) Units=km Length=0.00549389 bus1=p6udm2618.1.2 bus2=p6ulv2362.1.2 switch=n enabled=y phases=2 Linecode=1P_UG_AL_1/0_Brenau_2

New Line.l(r:p6udm2617-p6udm2618) Units=km Length=0.0731628 bus1=p6udm2617.1.2 bus2=p6udm2618.1.2 switch=n enabled=y phases=2 Linecode=1P_UG_AL_1/0_Brenau_2

New Line.l(r:p6udm2616-p6udm2617) Units=km Length=0.00755382 bus1=p6udm2616.1.2 bus2=p6udm2617.1.2 switch=n enabled=y phases=2 Linecode=1P_UG_AL_1/0_Brenau_2

New Line.l(r:p6udm2616-p6udt775lv) Units=km Length=0.0217864 bus1=p6udt775lv.1.2 bus2=p6udm2616.1.2 switch=n enabled=y phases=2 Linecode=1P_UG_AL_1/0_Brenau_2

New Line.l(r:p6udm2619-p6ulv2381) Units=km Length=0.008094500000000001 bus1=p6udm2619.1.2 bus2=p6ulv2381.1.2 switch=n enabled=y phases=2 Linecode=1P_UG_AL_1/0_Brenau_2

New Line.l(r:p6udm2620-p6ulv3610) Units=km Length=0.00266257 bus1=p6udm2620.1.2 bus2=p6ulv3610.1.2 switch=n enabled=y phases=2 Linecode=1P_UG_AL_1/0_Brenau_2

New Line.l(r:p6udm2619-p6udm2620) Units=km Length=0.0406615 bus1=p6udm2619.1.2 bus2=p6udm2620.1.2 switch=n enabled=y phases=2 Linecode=1P_UG_AL_1/0_Brenau_2

New Line.l(r:p6udm2619-p6udt775lv) Units=km Length=0.0216802 bus1=p6udt775lv.1.2 bus2=p6udm2619.1.2 switch=n enabled=y phases=2 Linecode=1P_UG_AL_1/0_Brenau_2

New Line.l(r:p6udm2621-p6ulv2358) Units=km Length=0.00357246 bus1=p6udm2621.1.2 bus2=p6ulv2358.1.2 switch=n enabled=y phases=2 Linecode=1P_UG_AL_1/0_Brenau_2

New Line.l(r:p6udm2621-p6udt776lv) Units=km Length=0.0511626 bus1=p6udt776lv.1.2 bus2=p6udm2621.1.2 switch=n enabled=y phases=2 Linecode=1P_UG_AL_1/0_Brenau_2

New Line.l(r:p6udm2622-p6ulv2382) Units=km Length=0.014238500000000001 bus1=p6udm2622.1.2 bus2=p6ulv2382.1.2 switch=n enabled=y phases=2 Linecode=1P_UG_AL_1/0_Brenau_2

New Line.l(r:p6udm2622-p6udt776lv) Units=km Length=0.063378 bus1=p6udt776lv.1.2 bus2=p6udm2622.1.2 switch=n enabled=y phases=2 Linecode=1P_UG_AL_1/0_Brenau_2

New Line.l(r:p6udm2625-p6ulv2412) Units=km Length=0.0121649 bus1=p6udm2625.1.2 bus2=p6ulv2412.1.2 switch=n enabled=y phases=2 Linecode=1P_OH_AL_2/0_Rucina_2

New Line.l(r:p6udm2624-p6ulv2361) Units=km Length=0.004985200000000001 bus1=p6udm2624.1.2 bus2=p6ulv2361.1.2 switch=n enabled=y phases=2 Linecode=1P_UG_AL_1/0_Brenau_2

New Line.l(r:p6udm2623-p6ulv2360) Units=km Length=0.00956169 bus1=p6udm2623.1.2 bus2=p6ulv2360.1.2 switch=n enabled=y phases=2 Linecode=1P_UG_AL_1/0_Brenau_2

New Line.l(r:p6udm2626-p6ulv3627) Units=km Length=0.010416 bus1=p6udm2626.1.2 bus2=p6ulv3627.1.2 switch=n enabled=y phases=2 Linecode=1P_UG_AL_1/0_Brenau_2

New Line.l(r:p6udm2623-p6udm2626) Units=km Length=0.0244272 bus1=p6udm2623.1.2 bus2=p6udm2626.1.2 switch=n enabled=y phases=2 Linecode=1P_UG_AL_1/0_Brenau_2

New Line.l(r:p6udm2623-p6udm2624) Units=km Length=0.0422302 bus1=p6udm2624.1.2 bus2=p6udm2623.1.2 switch=n enabled=y phases=2 Linecode=1P_UG_AL_1/0_Brenau_2

New Line.l(r:p6udm2624-p6udm2625) Units=km Length=0.0329461 bus1=p6udm2625.1.2 bus2=p6udm2624.1.2 switch=n enabled=y phases=2 Linecode=1P_OH_AL_4/0_Zuzara_2

New Line.l(r:p6udm2625-p6udt777lv) Units=km Length=0.0164664 bus1=p6udt777lv.1.2 bus2=p6udm2625.1.2 switch=n enabled=y phases=2 Linecode=1P_OH_AL_2/0_Rucina_2

New Line.l(r:p6udt778lv-p6ulv2364) Units=km Length=0.0117126 bus1=p6udt778lv.1.2 bus2=p6ulv2364.1.2 switch=n enabled=y phases=2 Linecode=1P_UG_AL_1/0_Brenau_2

New Line.l(r:p6udm2627-p6ulv2363) Units=km Length=0.00791556 bus1=p6udm2627.1.2 bus2=p6ulv2363.1.2 switch=n enabled=y phases=2 Linecode=1P_UG_AL_1/0_Brenau_2

New Line.l(r:p6udm2629-p6ulv2365) Units=km Length=0.00550532 bus1=p6udm2629.1.2 bus2=p6ulv2365.1.2 switch=n enabled=y phases=2 Linecode=1P_UG_AL_1/0_Brenau_2

New Line.l(r:p6udm2627-p6udm2629) Units=km Length=0.0578865 bus1=p6udm2627.1.2 bus2=p6udm2629.1.2 switch=n enabled=y phases=2 Linecode=1P_UG_AL_1/0_Brenau_2

New Line.l(r:p6udm2627-p6udt778lv) Units=km Length=0.0192935 bus1=p6udt778lv.1.2 bus2=p6udm2627.1.2 switch=n enabled=y phases=2 Linecode=1P_UG_AL_1/0_Brenau_2

New Line.l(r:p6udm2630-p6ulv2411) Units=km Length=0.00798326 bus1=p6udm2630.1.2 bus2=p6ulv2411.1.2 switch=n enabled=y phases=2 Linecode=1P_UG_AL_1/0_Brenau_2

New Line.l(r:p6udm2631-p6ulv2416) Units=km Length=0.006458210000000001 bus1=p6udm2631.1.2 bus2=p6ulv2416.1.2 switch=n enabled=y phases=2 Linecode=1P_UG_AL_1/0_Brenau_2

New Line.l(r:p6udm2630-p6udm2631) Units=km Length=0.00859854 bus1=p6udm2630.1.2 bus2=p6udm2631.1.2 switch=n enabled=y phases=2 Linecode=1P_UG_AL_1/0_Brenau_2

New Line.l(r:p6udm2630-p6udt778lv) Units=km Length=0.04716940000000001 bus1=p6udt778lv.1.2 bus2=p6udm2630.1.2 switch=n enabled=y phases=2 Linecode=1P_UG_AL_1/0_Brenau_2

New Line.l(r:p6udm2633-p6ulv2367) Units=km Length=0.0219645 bus1=p6udm2633.1.2 bus2=p6ulv2367.1.2 switch=n enabled=y phases=2 Linecode=1P_OH_AL_2/0_Rucina_2

New Line.l(r:p6udm2632-p6ulv2366) Units=km Length=0.0106677 bus1=p6udm2632.1.2 bus2=p6ulv2366.1.2 switch=n enabled=y phases=2 Linecode=1P_UG_AL_1/0_Brenau_2

New Line.l(r:p6udm2632-p6udm2633) Units=km Length=0.0329423 bus1=p6udm2633.1.2 bus2=p6udm2632.1.2 switch=n enabled=y phases=2 Linecode=1P_OH_AL_4/0_Zuzara_2

New Line.l(r:p6udm2633-p6udt779lv) Units=km Length=0.0361609 bus1=p6udt779lv.1.2 bus2=p6udm2633.1.2 switch=n enabled=y phases=2 Linecode=1P_OH_AL_4/0_Zuzara_2

New Line.l(r:p6udm2634-p6ulv2391) Units=km Length=0.00225801 bus1=p6udm2634.1.2 bus2=p6ulv2391.1.2 switch=n enabled=y phases=2 Linecode=1P_UG_AL_1/0_Brenau_2

New Line.l(r:p6udm2634-p6ulv2392) Units=km Length=0.00558753 bus1=p6udm2634.1.2 bus2=p6ulv2392.1.2 switch=n enabled=y phases=2 Linecode=1P_UG_AL_1/0_Brenau_2

New Line.l(r:p6udm2634-p6udt779lv) Units=km Length=0.0650562 bus1=p6udt779lv.1.2 bus2=p6udm2634.1.2 switch=n enabled=y phases=2 Linecode=1P_OH_AL_4/0_Zuzara_2

New Line.l(r:p6udm2638-p6ulv2379) Units=km Length=0.006713600000000001 bus1=p6udm2638.1.2 bus2=p6ulv2379.1.2 switch=n enabled=y phases=2 Linecode=1P_UG_AL_1/0_Brenau_2

New Line.l(r:p6udm2636-p6ulv2376) Units=km Length=0.002614 bus1=p6udm2636.1.2 bus2=p6ulv2376.1.2 switch=n enabled=y phases=2 Linecode=1P_UG_AL_1/0_Brenau_2

New Line.l(r:p6udm2639-p6ulv2380) Units=km Length=0.00633096 bus1=p6udm2639.1.2 bus2=p6ulv2380.1.2 switch=n enabled=y phases=2 Linecode=1P_UG_AL_1/0_Brenau_2

New Line.l(r:p6udm2636-p6udm2639) Units=km Length=0.0612663 bus1=p6udm2636.1.2 bus2=p6udm2639.1.2 switch=n enabled=y phases=2 Linecode=1P_UG_AL_1/0_Brenau_2

New Line.l(r:p6udm2636-p6udm2638) Units=km Length=0.026267100000000005 bus1=p6udm2638.1.2 bus2=p6udm2636.1.2 switch=n enabled=y phases=2 Linecode=1P_UG_AL_1/0_Brenau_2

New Line.l(r:p6udm2638-p6udt780lv) Units=km Length=0.016403 bus1=p6udt780lv.1.2 bus2=p6udm2638.1.2 switch=n enabled=y phases=2 Linecode=1P_UG_AL_1/0_Brenau_2

New Line.l(r:p6udm2641-p6ulv3614) Units=km Length=0.0271365 bus1=p6udm2641.1.2 bus2=p6ulv3614.1.2 switch=n enabled=y phases=2 Linecode=1P_UG_AL_1/0_Brenau_2

New Line.l(r:p6udm2640-p6ulv3613) Units=km Length=0.0202882 bus1=p6udm2640.1.2 bus2=p6ulv3613.1.2 switch=n enabled=y phases=2 Linecode=1P_OH_AL_2/0_Rucina_2

New Line.l(r:p6udm2640-p6udm2641) Units=km Length=0.015004 bus1=p6udm2641.1.2 bus2=p6udm2640.1.2 switch=n enabled=y phases=2 Linecode=1P_OH_AL_2/0_Rucina_2

New Line.l(r:p6udm2642-p6ulv3624) Units=km Length=0.0173524 bus1=p6udm2642.1.2 bus2=p6ulv3624.1.2 switch=n enabled=y phases=2 Linecode=1P_UG_AL_1/0_Brenau_2

New Line.l(r:p6udm2637-p6ulv2378) Units=km Length=0.0141672 bus1=p6udm2637.1.2 bus2=p6ulv2378.1.2 switch=n enabled=y phases=2 Linecode=1P_UG_AL_1/0_Brenau_2

New Line.l(r:p6udm2637-p6udm2642) Units=km Length=0.0298644 bus1=p6udm2642.1.2 bus2=p6udm2637.1.2 switch=n enabled=y phases=2 Linecode=1P_UG_AL_1/0_Brenau_2

New Line.l(r:p6udm2641-p6udm2642) Units=km Length=0.052133 bus1=p6udm2641.1.2 bus2=p6udm2642.1.2 switch=n enabled=y phases=2 Linecode=1P_UG_AL_1/0_Brenau_2

New Line.l(r:p6udm2641-p6udt780lv) Units=km Length=0.0164108 bus1=p6udt780lv.1.2 bus2=p6udm2641.1.2 switch=n enabled=y phases=2 Linecode=1P_UG_AL_1/0_Brenau_2

New Line.l(r:p6udm2644-p6ulv2384) Units=km Length=0.0235448 bus1=p6udm2644.1.2 bus2=p6ulv2384.1.2 switch=n enabled=y phases=2 Linecode=1P_UG_AL_1/0_Brenau_2

New Line.l(r:p6udm2646-p6ulv2393) Units=km Length=0.0254456 bus1=p6udm2646.1.2 bus2=p6ulv2393.1.2 switch=n enabled=y phases=2 Linecode=1P_UG_AL_1/0_Brenau_2

New Line.l(r:p6udm2644-p6udm2646) Units=km Length=0.0124797 bus1=p6udm2644.1.2 bus2=p6udm2646.1.2 switch=n enabled=y phases=2 Linecode=1P_UG_AL_1/0_Brenau_2

New Line.l(r:p6udm2644-p6udt781lv) Units=km Length=0.0132871 bus1=p6udt781lv.1.2 bus2=p6udm2644.1.2 switch=n enabled=y phases=2 Linecode=1P_UG_AL_1/0_Brenau_2

New Line.l(r:p6udm2645-p6ulv2387) Units=km Length=0.0421175 bus1=p6udm2645.1.2 bus2=p6ulv2387.1.2 switch=n enabled=y phases=2 Linecode=1P_UG_AL_1/0_Brenau_2

New Line.l(r:p6udm2643-p6ulv2383) Units=km Length=0.0335795 bus1=p6udm2643.1.2 bus2=p6ulv2383.1.2 switch=n enabled=y phases=2 Linecode=1P_UG_AL_1/0_Brenau_2

New Line.l(r:p6udm2643-p6udm2645) Units=km Length=0.014363 bus1=p6udm2645.1.2 bus2=p6udm2643.1.2 switch=n enabled=y phases=2 Linecode=1P_UG_AL_1/0_Brenau_2

New Line.l(r:p6udm2645-p6udt781lv) Units=km Length=0.00745242 bus1=p6udt781lv.1.2 bus2=p6udm2645.1.2 switch=n enabled=y phases=2 Linecode=1P_UG_AL_1/0_Brenau_2

New Line.l(r:p6udt782lv-p6ulv2406) Units=km Length=0.014874500000000002 bus1=p6udt782lv.1.2 bus2=p6ulv2406.1.2 switch=n enabled=y phases=2 Linecode=1P_OH_AL_2/0_Rucina_2

New Line.l(r:p6udt782lv-p6ulv2408) Units=km Length=0.019803500000000005 bus1=p6udt782lv.1.2 bus2=p6ulv2408.1.2 switch=n enabled=y phases=2 Linecode=1P_OH_AL_2/0_Rucina_2

New Line.l(r:p6udm2648-p6ulv2386) Units=km Length=0.0110141 bus1=p6udm2648.1.2 bus2=p6ulv2386.1.2 switch=n enabled=y phases=2 Linecode=1P_OH_AL_2/0_Rucina_2

New Line.l(r:p6udm2648-p6ulv2388) Units=km Length=0.0348434 bus1=p6udm2648.1.2 bus2=p6ulv2388.1.2 switch=n enabled=y phases=2 Linecode=1P_OH_AL_4/0_Zuzara_2

New Line.l(r:p6udm2647-p6ulv2385) Units=km Length=0.0274052 bus1=p6udm2647.1.2 bus2=p6ulv2385.1.2 switch=n enabled=y phases=2 Linecode=1P_OH_AL_4/0_Zuzara_2

New Line.l(r:p6udm2647-p6ulv2407) Units=km Length=0.0154242 bus1=p6udm2647.1.2 bus2=p6ulv2407.1.2 switch=n enabled=y phases=2 Linecode=1P_OH_AL_2/0_Rucina_2

New Line.l(r:p6udm2647-p6udm2648) Units=km Length=0.0187652 bus1=p6udm2648.1.2 bus2=p6udm2647.1.2 switch=n enabled=y phases=2 Linecode=1P_OH_AL_2/0_Rucina_2

New Line.l(r:p6udm2648-p6udt782lv) Units=km Length=0.0187652 bus1=p6udt782lv.1.2 bus2=p6udm2648.1.2 switch=n enabled=y phases=2 Linecode=1P_OH_AL_2/0_Rucina_2

New Line.l(r:p6udm2650-p6ulv2389) Units=km Length=0.0150309 bus1=p6udm2650.1.2 bus2=p6ulv2389.1.2 switch=n enabled=y phases=2 Linecode=1P_OH_AL_2/0_Rucina_2

New Line.l(r:p6udm2654-p6ulv3612) Units=km Length=0.041887 bus1=p6udm2654.1.2 bus2=p6ulv3612.1.2 switch=n enabled=y phases=2 Linecode=1P_OH_AL_4/0_Zuzara_2

New Line.l(r:p6udm2650-p6udm2654) Units=km Length=0.0187562 bus1=p6udm2650.1.2 bus2=p6udm2654.1.2 switch=n enabled=y phases=2 Linecode=1P_OH_AL_2/0_Rucina_2

New Line.l(r:p6udm2650-p6udt782lv) Units=km Length=0.0187652 bus1=p6udt782lv.1.2 bus2=p6udm2650.1.2 switch=n enabled=y phases=2 Linecode=1P_OH_AL_2/0_Rucina_2

New Line.l(r:p6udm2655-p6ulv2390) Units=km Length=0.0132371 bus1=p6udm2655.1.2 bus2=p6ulv2390.1.2 switch=n enabled=y phases=2 Linecode=1P_UG_AL_1/0_Brenau_2

New Line.l(r:p6udm2655-p6udt783lv) Units=km Length=0.0085116 bus1=p6udt783lv.1.2 bus2=p6udm2655.1.2 switch=n enabled=y phases=2 Linecode=1P_UG_AL_1/0_Brenau_2

New Line.l(r:p6udm2656-p6ulv2405) Units=km Length=0.004086 bus1=p6udm2656.1.2 bus2=p6ulv2405.1.2 switch=n enabled=y phases=2 Linecode=1P_UG_AL_1/0_Brenau_2

New Line.l(r:p6udm2656-p6udt783lv) Units=km Length=0.0255391 bus1=p6udt783lv.1.2 bus2=p6udm2656.1.2 switch=n enabled=y phases=2 Linecode=1P_UG_AL_1/0_Brenau_2

New Line.l(r:p6udt785lv-p6ulv2397) Units=km Length=0.0594708 bus1=p6udt785lv.1.2 bus2=p6ulv2397.1.2 switch=n enabled=y phases=2 Linecode=1P_UG_AL_1/0_Brenau_2

New Line.l(r:p6udt786lv-p6ulv2400) Units=km Length=0.0184257 bus1=p6udt786lv.1.2 bus2=p6ulv2400.1.2 switch=n enabled=y phases=2 Linecode=1P_OH_AL_2/0_Rucina_2

New Line.l(r:p6udm2660-p6ulv2399) Units=km Length=0.0215398 bus1=p6udm2660.1.2 bus2=p6ulv2399.1.2 switch=n enabled=y phases=2 Linecode=1P_OH_AL_2/0_Rucina_2

New Line.l(r:p6udm2659-p6ulv2398) Units=km Length=0.0159776 bus1=p6udm2659.1.2 bus2=p6ulv2398.1.2 switch=n enabled=y phases=2 Linecode=1P_OH_AL_2/0_Rucina_2

New Line.l(r:p6udm2659-p6udm2660) Units=km Length=0.0196705 bus1=p6udm2660.1.2 bus2=p6udm2659.1.2 switch=n enabled=y phases=2 Linecode=1P_OH_AL_2/0_Rucina_2

New Line.l(r:p6udm2660-p6udt786lv) Units=km Length=0.0196796 bus1=p6udt786lv.1.2 bus2=p6udm2660.1.2 switch=n enabled=y phases=2 Linecode=1P_OH_AL_2/0_Rucina_2

New Line.l(r:p6udm2662-p6ulv2401) Units=km Length=0.014512700000000002 bus1=p6udm2662.1.2 bus2=p6ulv2401.1.2 switch=n enabled=y phases=2 Linecode=1P_OH_AL_2/0_Rucina_2

New Line.l(r:p6udm2662-p6udt786lv) Units=km Length=0.0306804 bus1=p6udt786lv.1.2 bus2=p6udm2662.1.2 switch=n enabled=y phases=2 Linecode=1P_OH_AL_4/0_Zuzara_2

New Line.l(r:p6udm2665-p6ulv2404) Units=km Length=0.015423000000000001 bus1=p6udm2665.1.2 bus2=p6ulv2404.1.2 switch=n enabled=y phases=2 Linecode=1P_UG_AL_1/0_Brenau_2

New Line.l(r:p6udm2664-p6ulv2403) Units=km Length=0.0325251 bus1=p6udm2664.1.2 bus2=p6ulv2403.1.2 switch=n enabled=y phases=2 Linecode=1P_UG_AL_1/0_Brenau_2

New Line.l(r:p6udm2663-p6ulv2402) Units=km Length=0.0161801 bus1=p6udm2663.1.2 bus2=p6ulv2402.1.2 switch=n enabled=y phases=2 Linecode=1P_UG_AL_1/0_Brenau_2

New Line.l(r:p6udm2663-p6udm2664) Units=km Length=0.00984935 bus1=p6udm2664.1.2 bus2=p6udm2663.1.2 switch=n enabled=y phases=2 Linecode=1P_UG_AL_1/0_Brenau_2

New Line.l(r:p6udm2664-p6udm2665) Units=km Length=0.0098625 bus1=p6udm2665.1.2 bus2=p6udm2664.1.2 switch=n enabled=y phases=2 Linecode=1P_UG_AL_1/0_Brenau_2

New Line.l(r:p6udm2665-p6udt787lv) Units=km Length=0.019707900000000004 bus1=p6udt787lv.1.2 bus2=p6udm2665.1.2 switch=n enabled=y phases=2 Linecode=1P_UG_AL_1/0_Brenau_2

New Line.l(r:p6udm2666-p6ulv8198) Units=km Length=0.0314281 bus1=p6udm2666.1.2 bus2=p6ulv8198.1.2 switch=n enabled=y phases=2 Linecode=1P_UG_AL_1/0_Brenau_2

New Line.l(r:p6udm2667-p6ulv8199) Units=km Length=0.0308427 bus1=p6udm2667.1.2 bus2=p6ulv8199.1.2 switch=n enabled=y phases=2 Linecode=1P_UG_AL_1/0_Brenau_2

New Line.l(r:p6udm2668-p6ulv8200) Units=km Length=0.00123454 bus1=p6udm2668.1.2 bus2=p6ulv8200.1.2 switch=n enabled=y phases=2 Linecode=1P_UG_AL_4/0_Sweetbriar_2

New Line.l(r:p6udm2667-p6udm2668) Units=km Length=0.00985332 bus1=p6udm2667.1.2 bus2=p6udm2668.1.2 switch=n enabled=y phases=2 Linecode=1P_UG_AL_4/0_Sweetbriar_2

New Line.l(r:p6udm2666-p6udm2667) Units=km Length=0.019707900000000004 bus1=p6udm2666.1.2 bus2=p6udm2667.1.2 switch=n enabled=y phases=2 Linecode=1P_UG_AL_4/0_Sweetbriar_2
