New Generator.pv_load_p6ulv2312_1 conn=wye bus1=p6ulv2312.1 kV=0.12 model=7 kW=0.28855480701865877 kvar=-0.0 Phases=1
New Generator.pv_load_p6ulv2313_2 conn=wye bus1=p6ulv2313.2 kV=0.12 model=7 kW=0.371212875091003 kvar=-0.0 Phases=1
New Generator.pv_load_p6ulv2321_2 conn=wye bus1=p6ulv2321.2 kV=0.12 model=7 kW=0.22392972365177016 kvar=-0.0 Phases=1
New Generator.pv_load_p6ulv2330_1 conn=wye bus1=p6ulv2330.1 kV=0.12 model=7 kW=0.27352606736914165 kvar=-0.0 Phases=1
New Generator.pv_load_p6ulv2330_2 conn=wye bus1=p6ulv2330.2 kV=0.12 model=7 kW=0.27352606736914165 kvar=-0.0 Phases=1
New Generator.pv_load_p6ulv2332_2 conn=wye bus1=p6ulv2332.2 kV=0.12 model=7 kW=0.29907492477332076 kvar=-0.0 Phases=1
New Generator.pv_load_p6ulv2333_2 conn=wye bus1=p6ulv2333.2 kV=0.12 model=7 kW=0.1698262609135085 kvar=-0.0 Phases=1
New Generator.pv_load_p6ulv2335_2 conn=wye bus1=p6ulv2335.2 kV=0.12 model=7 kW=0.2043923621073979 kvar=-0.0 Phases=1
New Generator.pv_load_p6ulv2336_2 conn=wye bus1=p6ulv2336.2 kV=0.12 model=7 kW=0.2449714620350591 kvar=-0.0 Phases=1
New Generator.pv_load_p6ulv2338_2 conn=wye bus1=p6ulv2338.2 kV=0.12 model=7 kW=0.3697100011260513 kvar=-0.0 Phases=1
New Generator.pv_load_p6ulv2344_2 conn=wye bus1=p6ulv2344.2 kV=0.12 model=7 kW=0.24346858807010738 kvar=-0.0 Phases=1
New Generator.pv_load_p6ulv2347_1 conn=wye bus1=p6ulv2347.1 kV=0.12 model=7 kW=0.4749126815466361 kvar=-0.0 Phases=1
New Generator.pv_load_p6ulv2347_2 conn=wye bus1=p6ulv2347.2 kV=0.12 model=7 kW=0.4749126815466361 kvar=-0.0 Phases=1
New Generator.pv_load_p6ulv2351_1 conn=wye bus1=p6ulv2351.1 kV=0.12 model=7 kW=0.1818492526331222 kvar=-0.0 Phases=1
New Generator.pv_load_p6ulv2354_2 conn=wye bus1=p6ulv2354.2 kV=0.12 model=7 kW=0.3171094123527413 kvar=-0.0 Phases=1
New Generator.pv_load_p6ulv2355_1 conn=wye bus1=p6ulv2355.1 kV=0.12 model=7 kW=0.24948008392991425 kvar=-0.0 Phases=1
New Generator.pv_load_p6ulv2355_2 conn=wye bus1=p6ulv2355.2 kV=0.12 model=7 kW=0.24948008392991425 kvar=-0.0 Phases=1
New Generator.pv_load_p6ulv2357_2 conn=wye bus1=p6ulv2357.2 kV=0.12 model=7 kW=0.09468196151633687 kvar=-0.0 Phases=1
New Generator.pv_load_p6ulv2358_1 conn=wye bus1=p6ulv2358.1 kV=0.12 model=7 kW=0.5816182359321727 kvar=-0.0 Phases=1
New Generator.pv_load_p6ulv2361_2 conn=wye bus1=p6ulv2361.2 kV=0.12 model=7 kW=0.3156065383877897 kvar=-0.0 Phases=1
New Generator.pv_load_p6ulv2366_2 conn=wye bus1=p6ulv2366.2 kV=0.12 model=7 kW=0.26450882357943134 kvar=-0.0 Phases=1
New Generator.pv_load_p6ulv2372_2 conn=wye bus1=p6ulv2372.2 kV=0.12 model=7 kW=0.14427740350932938 kvar=-0.0 Phases=1
New Generator.pv_load_p6ulv2373_2 conn=wye bus1=p6ulv2373.2 kV=0.12 model=7 kW=0.16832338694855678 kvar=-0.0 Phases=1
New Generator.pv_load_p6ulv2381_2 conn=wye bus1=p6ulv2381.2 kV=0.12 model=7 kW=0.23745709221030054 kvar=-0.0 Phases=1
New Generator.pv_load_p6ulv2382_2 conn=wye bus1=p6ulv2382.2 kV=0.12 model=7 kW=0.3621956313012927 kvar=-0.0 Phases=1
New Generator.pv_load_p6ulv2384_2 conn=wye bus1=p6ulv2384.2 kV=0.12 model=7 kW=0.27502894133409334 kvar=-0.0 Phases=1
New Generator.pv_load_p6ulv2385_2 conn=wye bus1=p6ulv2385.2 kV=0.12 model=7 kW=0.2825433111588519 kvar=-0.0 Phases=1
New Generator.pv_load_p6ulv2389_1 conn=wye bus1=p6ulv2389.1 kV=0.12 model=7 kW=0.3020806727032242 kvar=-0.0 Phases=1
New Generator.pv_load_p6ulv2391_1 conn=wye bus1=p6ulv2391.1 kV=0.12 model=7 kW=0.25098295789486597 kvar=-0.0 Phases=1
New Generator.pv_load_p6ulv2391_2 conn=wye bus1=p6ulv2391.2 kV=0.12 model=7 kW=0.25098295789486597 kvar=-0.0 Phases=1
New Generator.pv_load_p6ulv2392_2 conn=wye bus1=p6ulv2392.2 kV=0.12 model=7 kW=0.3546812614765341 kvar=-0.0 Phases=1
New Generator.pv_load_p6ulv2397_2 conn=wye bus1=p6ulv2397.2 kV=0.12 model=7 kW=0.4463580762125536 kvar=-0.0 Phases=1
New Generator.pv_load_p6ulv2399_2 conn=wye bus1=p6ulv2399.2 kV=0.12 model=7 kW=0.3982661093340988 kvar=-0.0 Phases=1
New Generator.pv_load_p6ulv2400_2 conn=wye bus1=p6ulv2400.2 kV=0.12 model=7 kW=0.43433508449293984 kvar=-0.0 Phases=1
New Generator.pv_load_p6ulv2403_1 conn=wye bus1=p6ulv2403.1 kV=0.12 model=7 kW=0.2825433111588519 kvar=-0.0 Phases=1
New Generator.pv_load_p6ulv2404_2 conn=wye bus1=p6ulv2404.2 kV=0.12 model=7 kW=0.3156065383877897 kvar=-0.0 Phases=1
New Generator.pv_load_p6ulv2407_1 conn=wye bus1=p6ulv2407.1 kV=0.12 model=7 kW=0.339652521827017 kvar=-0.0 Phases=1
New Generator.pv_load_p6ulv2408_2 conn=wye bus1=p6ulv2408.2 kV=0.12 model=7 kW=0.37722587382477485 kvar=-0.0 Phases=1
New Generator.pv_load_p6ulv2409_2 conn=wye bus1=p6ulv2409.2 kV=0.12 model=7 kW=0.6041613454064484 kvar=-0.0 Phases=1
New Generator.pv_load_p6ulv2413_2 conn=wye bus1=p6ulv2413.2 kV=0.12 model=7 kW=0.24346858807010738 kvar=-0.0 Phases=1
New Generator.pv_load_p6ulv2419_2 conn=wye bus1=p6ulv2419.2 kV=0.12 model=7 kW=0.10820797748829879 kvar=-0.0 Phases=1
New Generator.pv_load_p6ulv2421_2 conn=wye bus1=p6ulv2421.2 kV=0.12 model=7 kW=0.08115594554437497 kvar=-0.0 Phases=1
New Generator.pv_load_p6ulv2426_1 conn=wye bus1=p6ulv2426.1 kV=0.12 model=7 kW=0.43433508449293984 kvar=-0.0 Phases=1
New Generator.pv_load_p6ulv2429 conn=wye bus1=p6ulv2429.1.2.3 kV=0.48 model=7 kW=17.04277110742822 kvar=-0.0 Phases=3
New Generator.pv_load_p6ulv2430_1 conn=wye bus1=p6ulv2430.1 kV=0.12 model=7 kW=0.32011516028264475 kvar=-0.0 Phases=1
New Generator.pv_load_p6ulv2430_2 conn=wye bus1=p6ulv2430.2 kV=0.12 model=7 kW=0.32011516028264475 kvar=-0.0 Phases=1
New Generator.pv_load_p6ulv2433 conn=wye bus1=p6ulv2433.1.2.3 kV=0.48 model=7 kW=23.835821543968557 kvar=-0.0 Phases=3
New Generator.pv_load_p6ulv2440_1 conn=wye bus1=p6ulv2440.1 kV=0.12 model=7 kW=1.024970564214823 kvar=-0.0 Phases=1
New Generator.pv_load_p6ulv2440_2 conn=wye bus1=p6ulv2440.2 kV=0.12 model=7 kW=1.024970564214823 kvar=-0.0 Phases=1
New Generator.pv_load_p6ulv2443_1 conn=wye bus1=p6ulv2443.1 kV=0.12 model=7 kW=0.23895996617525225 kvar=-0.0 Phases=1
New Generator.pv_load_p6ulv2443_2 conn=wye bus1=p6ulv2443.2 kV=0.12 model=7 kW=0.23895996617525225 kvar=-0.0 Phases=1
New Generator.pv_load_p6ulv2447_2 conn=wye bus1=p6ulv2447.2 kV=0.12 model=7 kW=0.22693697445563854 kvar=-0.0 Phases=1
New Generator.pv_load_p6ulv2455_1 conn=wye bus1=p6ulv2455.1 kV=0.12 model=7 kW=0.21791822779196332 kvar=-0.0 Phases=1
New Generator.pv_load_p6ulv3613_1 conn=wye bus1=p6ulv3613.1 kV=0.12 model=7 kW=0.4959529170559602 kvar=-0.0 Phases=1
New Generator.pv_load_p6ulv3614_2 conn=wye bus1=p6ulv3614.2 kV=0.12 model=7 kW=0.17583775677331534 kvar=-0.0 Phases=1
New Generator.pv_load_p6ulv3627_1 conn=wye bus1=p6ulv3627.1 kV=0.12 model=7 kW=0.24046284014020394 kvar=-0.0 Phases=1
New Generator.pv_load_p6ulv4274_1 conn=wye bus1=p6ulv4274.1 kV=0.12 model=7 kW=0.2705203194392382 kvar=-0.0 Phases=1
New Generator.pv_load_p6ulv4275_2 conn=wye bus1=p6ulv4275.2 kV=0.12 model=7 kW=0.34265826975692043 kvar=-0.0 Phases=1
New Generator.pv_load_p6ulv4278_1 conn=wye bus1=p6ulv4278.1 kV=0.12 model=7 kW=0.16080901712379822 kvar=-0.0 Phases=1
New Generator.pv_load_p6ulv4279_1 conn=wye bus1=p6ulv4279.1 kV=0.12 model=7 kW=0.3005777987382725 kvar=-0.0 Phases=1
New Generator.pv_load_p6ulv4281 conn=wye bus1=p6ulv4281.1.2.3 kV=0.48 model=7 kW=6.098722664732648 kvar=-0.0 Phases=3
New Generator.pv_load_p6ulv4293_2 conn=wye bus1=p6ulv4293.2 kV=0.12 model=7 kW=0.12624261535511583 kvar=-0.0 Phases=1
New Generator.pv_load_p6ulv4295_2 conn=wye bus1=p6ulv4295.2 kV=0.12 model=7 kW=0.18485500056302565 kvar=-0.0 Phases=1
New Generator.pv_load_p6ulv4296_1 conn=wye bus1=p6ulv4296.1 kV=0.12 model=7 kW=0.5320233950887662 kvar=-0.0 Phases=1
New Generator.pv_load_p6ulv4299_2 conn=wye bus1=p6ulv4299.2 kV=0.12 model=7 kW=0.5004615389508152 kvar=-0.0 Phases=1
New Generator.pv_load_p6ulv4301_1 conn=wye bus1=p6ulv4301.1 kV=0.12 model=7 kW=0.2554915797897211 kvar=-0.0 Phases=1
New Generator.pv_load_p6ulv4301_2 conn=wye bus1=p6ulv4301.2 kV=0.12 model=7 kW=0.2554915797897211 kvar=-0.0 Phases=1
New Generator.pv_load_p6ulv4303_2 conn=wye bus1=p6ulv4303.2 kV=0.12 model=7 kW=0.2058952360723496 kvar=-0.0 Phases=1
New Generator.pv_load_p6ulv4304_1 conn=wye bus1=p6ulv4304.1 kV=0.12 model=7 kW=0.9378023713736585 kvar=-0.0 Phases=1
New Generator.pv_load_p6ulv4304_2 conn=wye bus1=p6ulv4304.2 kV=0.12 model=7 kW=0.9378023713736585 kvar=-0.0 Phases=1
New Generator.pv_load_p6ulv4306_2 conn=wye bus1=p6ulv4306.2 kV=0.12 model=7 kW=1.5810384398688513 kvar=-0.0 Phases=1
New Generator.pv_load_p6ulv8201 conn=wye bus1=p6ulv8201.1.2.3 kV=0.48 model=7 kW=5.891326057569312 kvar=-0.0 Phases=3
New Generator.pv_load_p6ulv8203_2 conn=wye bus1=p6ulv8203.2 kV=0.12 model=7 kW=1.2293629263222208 kvar=-0.0 Phases=1
New Generator.pv_load_p6ulv8207_2 conn=wye bus1=p6ulv8207.2 kV=0.12 model=7 kW=0.28404618512380364 kvar=-0.0 Phases=1
New Generator.pv_load_p6ulv8213 conn=wye bus1=p6ulv8213.1.2.3 kV=0.48 model=7 kW=9.035368449727596 kvar=-0.0 Phases=3
New Generator.pv_load_p6ulv8217_1 conn=wye bus1=p6ulv8217.1 kV=0.12 model=7 kW=0.1908664964228325 kvar=-0.0 Phases=1
New Generator.pv_load_p6ulv8218_1 conn=wye bus1=p6ulv8218.1 kV=0.12 model=7 kW=0.4764155555115878 kvar=-0.0 Phases=1
New Generator.pv_load_p6ulv8220_2 conn=wye bus1=p6ulv8220.2 kV=0.12 model=7 kW=0.10369935559344366 kvar=-0.0 Phases=1
New Generator.pv_load_p6ulv8221_1 conn=wye bus1=p6ulv8221.1 kV=0.12 model=7 kW=0.23895996617525225 kvar=-0.0 Phases=1
New Generator.pv_load_p6ulv8221_2 conn=wye bus1=p6ulv8221.2 kV=0.12 model=7 kW=0.23895996617525225 kvar=-0.0 Phases=1
New Generator.pv_load_p6ulv11274_2 conn=wye bus1=p6ulv11274.2 kV=0.12 model=7 kW=0.2900576809836105 kvar=-0.0 Phases=1
New Generator.pv_load_p6ulv11275_2 conn=wye bus1=p6ulv11275.2 kV=0.12 model=7 kW=0.2058952360723496 kvar=-0.0 Phases=1
New Generator.pv_load_p6ulv11329_1 conn=wye bus1=p6ulv11329.1 kV=0.12 model=7 kW=0.39526036140419535 kvar=-0.0 Phases=1
New Generator.pv_load_p6ulv11331_2 conn=wye bus1=p6ulv11331.2 kV=0.12 model=7 kW=0.2795375632289485 kvar=-0.0 Phases=1
New Generator.pv_load_p6ulv11338_2 conn=wye bus1=p6ulv11338.2 kV=0.12 model=7 kW=0.2584973277196246 kvar=-0.0 Phases=1
New Generator.pv_load_p6ulv13840_2 conn=wye bus1=p6ulv13840.2 kV=0.12 model=7 kW=0.360692757336341 kvar=-0.0 Phases=1
New Generator.pv_load_p6ulv13843_1 conn=wye bus1=p6ulv13843.1 kV=0.12 model=7 kW=0.36670425319614786 kvar=-0.0 Phases=1
New Generator.pv_load_p6ulv13843_2 conn=wye bus1=p6ulv13843.2 kV=0.12 model=7 kW=0.36670425319614786 kvar=-0.0 Phases=1
New Generator.pv_load_p6ulv13845_1 conn=wye bus1=p6ulv13845.1 kV=0.12 model=7 kW=0.371212875091003 kvar=-0.0 Phases=1
New Generator.pv_load_p6ulv13845_2 conn=wye bus1=p6ulv13845.2 kV=0.12 model=7 kW=0.371212875091003 kvar=-0.0 Phases=1
New Generator.pv_load_p6ulv13846_1 conn=wye bus1=p6ulv13846.1 kV=0.12 model=7 kW=0.37722587382477485 kvar=-0.0 Phases=1
New Generator.pv_load_p6ulv13847_2 conn=wye bus1=p6ulv13847.2 kV=0.12 model=7 kW=0.07063582778971297 kvar=-0.0 Phases=1
New Generator.pv_load_p6ulv13944_1 conn=wye bus1=p6ulv13944.1 kV=0.12 model=7 kW=0.27352606736914165 kvar=-0.0 Phases=1
New Generator.pv_load_p6ulv13944_2 conn=wye bus1=p6ulv13944.2 kV=0.12 model=7 kW=0.27352606736914165 kvar=-0.0 Phases=1
New Generator.pv_load_p6ulv13952_1 conn=wye bus1=p6ulv13952.1 kV=0.12 model=7 kW=0.29757205080836907 kvar=-0.0 Phases=1
New Generator.pv_load_p6ulv13952_2 conn=wye bus1=p6ulv13952.2 kV=0.12 model=7 kW=0.29757205080836907 kvar=-0.0 Phases=1
New Generator.pv_load_p6ulv13953_1 conn=wye bus1=p6ulv13953.1 kV=0.12 model=7 kW=0.4012718572640022 kvar=-0.0 Phases=1
New Generator.pv_load_p6ulv13955_2 conn=wye bus1=p6ulv13955.2 kV=0.12 model=7 kW=0.30358354666817594 kvar=-0.0 Phases=1
New Generator.pv_load_p6ulv13960_2 conn=wye bus1=p6ulv13960.2 kV=0.12 model=7 kW=0.2960691768434174 kvar=-0.0 Phases=1
New Generator.pv_load_p6ulv13961_1 conn=wye bus1=p6ulv13961.1 kV=0.12 model=7 kW=0.39526036140419535 kvar=-0.0 Phases=1
New Generator.pv_load_p6ulv13962_2 conn=wye bus1=p6ulv13962.2 kV=0.12 model=7 kW=0.17734063073826706 kvar=-0.0 Phases=1
New Generator.pv_load_p6ulv13967_2 conn=wye bus1=p6ulv13967.2 kV=0.12 model=7 kW=0.339652521827017 kvar=-0.0 Phases=1
New Generator.pv_load_p6ulv13974_1 conn=wye bus1=p6ulv13974.1 kV=0.12 model=7 kW=0.14277437925698117 kvar=-0.0 Phases=1
New Generator.pv_load_p6ulv13976_2 conn=wye bus1=p6ulv13976.2 kV=0.12 model=7 kW=0.26300594961447965 kvar=-0.0 Phases=1
New Generator.pv_load_p6ulv13980_1 conn=wye bus1=p6ulv13980.1 kV=0.12 model=7 kW=0.44335232828265014 kvar=-0.0 Phases=1
New Generator.pv_load_p6ulv13985_2 conn=wye bus1=p6ulv13985.2 kV=0.12 model=7 kW=0.339652521827017 kvar=-0.0 Phases=1
New Generator.pv_load_p6ulv13986_1 conn=wye bus1=p6ulv13986.1 kV=0.12 model=7 kW=1.9747914186862001 kvar=-0.0 Phases=1
New Generator.pv_load_p6ulv13986_2 conn=wye bus1=p6ulv13986.2 kV=0.12 model=7 kW=1.9747914186862001 kvar=-0.0 Phases=1
New Generator.pv_load_p6ulv13989_2 conn=wye bus1=p6ulv13989.2 kV=0.12 model=7 kW=0.19988374021254274 kvar=-0.0 Phases=1
New Generator.pv_load_p6ulv14049_2 conn=wye bus1=p6ulv14049.2 kV=0.12 model=7 kW=0.10820797748829879 kvar=-0.0 Phases=1
New Generator.pv_load_p6ulv14053_2 conn=wye bus1=p6ulv14053.2 kV=0.12 model=7 kW=0.3231209082125482 kvar=-0.0 Phases=1
New Generator.pv_load_p6ulv14054_1 conn=wye bus1=p6ulv14054.1 kV=0.12 model=7 kW=0.3306352780373067 kvar=-0.0 Phases=1
New Generator.pv_load_p6ulv14057_1 conn=wye bus1=p6ulv14057.1 kV=0.12 model=7 kW=0.3141036644228379 kvar=-0.0 Phases=1
New Generator.pv_load_p6ulv14061_1 conn=wye bus1=p6ulv14061.1 kV=0.12 model=7 kW=0.24346858807010738 kvar=-0.0 Phases=1
New Generator.pv_load_p6ulv14061_2 conn=wye bus1=p6ulv14061.2 kV=0.12 model=7 kW=0.24346858807010738 kvar=-0.0 Phases=1
New Generator.pv_load_p6ulv14063_1 conn=wye bus1=p6ulv14063.1 kV=0.12 model=7 kW=0.22693697445563854 kvar=-0.0 Phases=1
New Generator.pv_load_p6ulv14065_1 conn=wye bus1=p6ulv14065.1 kV=0.12 model=7 kW=0.17583775677331534 kvar=-0.0 Phases=1
New Generator.pv_load_p6ulv14065_2 conn=wye bus1=p6ulv14065.2 kV=0.12 model=7 kW=0.17583775677331534 kvar=-0.0 Phases=1
New Generator.pv_load_p6ulv14068_2 conn=wye bus1=p6ulv14068.2 kV=0.12 model=7 kW=0.29757205080836907 kvar=-0.0 Phases=1
New Generator.pv_load_p6ulv14069_1 conn=wye bus1=p6ulv14069.1 kV=0.12 model=7 kW=0.29757205080836907 kvar=-0.0 Phases=1
New Generator.pv_load_p6ulv14072_2 conn=wye bus1=p6ulv14072.2 kV=0.12 model=7 kW=0.19387224435273592 kvar=-0.0 Phases=1
New Generator.pv_load_p6ulv14084_1 conn=wye bus1=p6ulv14084.1 kV=0.12 model=7 kW=0.28554905908875533 kvar=-0.0 Phases=1
New Generator.pv_load_p6ulv14084_2 conn=wye bus1=p6ulv14084.2 kV=0.12 model=7 kW=0.28554905908875533 kvar=-0.0 Phases=1
New Generator.pv_load_p6ulv14088_1 conn=wye bus1=p6ulv14088.1 kV=0.12 model=7 kW=0.6221958329858689 kvar=-0.0 Phases=1
New Generator.pv_load_p6ulv14094_2 conn=wye bus1=p6ulv14094.2 kV=0.12 model=7 kW=0.23294847031544538 kvar=-0.0 Phases=1
New Generator.pv_load_p6ulv14098_1 conn=wye bus1=p6ulv14098.1 kV=0.12 model=7 kW=0.2600002016845762 kvar=-0.0 Phases=1
New Generator.pv_load_p6ulv14099_2 conn=wye bus1=p6ulv14099.2 kV=0.12 model=7 kW=0.21040385796720473 kvar=-0.0 Phases=1
New Generator.pv_load_p6ulv14104 conn=wye bus1=p6ulv14104.1.2.3 kV=0.48 model=7 kW=24.88783331943476 kvar=-0.0 Phases=3
New Generator.pv_load_p6ulv14109_1 conn=wye bus1=p6ulv14109.1 kV=0.12 model=7 kW=0.21190673193215645 kvar=-0.0 Phases=1
New Generator.pv_load_p6ulv14112_2 conn=wye bus1=p6ulv14112.2 kV=0.12 model=7 kW=0.10219648162849194 kvar=-0.0 Phases=1
New Generator.pv_load_p6ulv14113_1 conn=wye bus1=p6ulv14113.1 kV=0.12 model=7 kW=0.22693697445563854 kvar=-0.0 Phases=1
New Generator.pv_load_p6ulv14113_2 conn=wye bus1=p6ulv14113.2 kV=0.12 model=7 kW=0.22693697445563854 kvar=-0.0 Phases=1
New Generator.pv_load_p6ulv14118_2 conn=wye bus1=p6ulv14118.2 kV=0.12 model=7 kW=0.12473974139016412 kvar=-0.0 Phases=1
New Generator.pv_load_p6ulv14119_1 conn=wye bus1=p6ulv14119.1 kV=0.12 model=7 kW=0.18635787452797736 kvar=-0.0 Phases=1
New Generator.pv_load_p6ulv14121_1 conn=wye bus1=p6ulv14121.1 kV=0.12 model=7 kW=0.22843984842059023 kvar=-0.0 Phases=1
New Generator.pv_load_p6ulv14125_2 conn=wye bus1=p6ulv14125.2 kV=0.12 model=7 kW=0.10971085145325049 kvar=-0.0 Phases=1
New Generator.pv_load_p6ulv14127_1 conn=wye bus1=p6ulv14127.1 kV=0.12 model=7 kW=0.42682071466818133 kvar=-0.0 Phases=1
New Generator.pv_load_p6ulv14130_2 conn=wye bus1=p6ulv14130.2 kV=0.12 model=7 kW=0.17583775677331534 kvar=-0.0 Phases=1
New Generator.pv_load_p6ulv14132_2 conn=wye bus1=p6ulv14132.2 kV=0.12 model=7 kW=0.21942110175691504 kvar=-0.0 Phases=1
New Generator.pv_load_p6ulv14136_1 conn=wye bus1=p6ulv14136.1 kV=0.12 model=7 kW=0.2058952360723496 kvar=-0.0 Phases=1
New Generator.pv_load_p6ulv14137_1 conn=wye bus1=p6ulv14137.1 kV=0.12 model=7 kW=0.21340960589710817 kvar=-0.0 Phases=1
New Generator.pv_load_p6ulv14140_1 conn=wye bus1=p6ulv14140.1 kV=0.12 model=7 kW=0.24196571410515566 kvar=-0.0 Phases=1
New Generator.pv_load_p6ulv14143_2 conn=wye bus1=p6ulv14143.2 kV=0.12 model=7 kW=0.12774563960746405 kvar=-0.0 Phases=1
New Generator.pv_load_p6ulv14144_2 conn=wye bus1=p6ulv14144.2 kV=0.12 model=7 kW=0.4854327993012981 kvar=-0.0 Phases=1
New Generator.pv_load_p6ulv14149_2 conn=wye bus1=p6ulv14149.2 kV=0.12 model=7 kW=0.20739811003730133 kvar=-0.0 Phases=1
New Generator.pv_load_p6ulv14152_1 conn=wye bus1=p6ulv14152.1 kV=0.12 model=7 kW=0.580115361967221 kvar=-0.0 Phases=1
New Generator.pv_load_p6ulv14155_1 conn=wye bus1=p6ulv14155.1 kV=0.12 model=7 kW=0.120231119495309 kvar=-0.0 Phases=1
New Generator.pv_load_p6ulv14158_1 conn=wye bus1=p6ulv14158.1 kV=0.12 model=7 kW=0.10069360766354024 kvar=-0.0 Phases=1
New Generator.pv_load_p6ulv14159_2 conn=wye bus1=p6ulv14159.2 kV=0.12 model=7 kW=0.27803468926399677 kvar=-0.0 Phases=1
New Generator.pv_load_p6ulv14160_1 conn=wye bus1=p6ulv14160.1 kV=0.12 model=7 kW=0.15930614315884653 kvar=-0.0 Phases=1
New Generator.pv_load_p6ulv14160_2 conn=wye bus1=p6ulv14160.2 kV=0.12 model=7 kW=0.15930614315884653 kvar=-0.0 Phases=1
New Generator.pv_load_p6ulv14161_2 conn=wye bus1=p6ulv14161.2 kV=0.12 model=7 kW=0.10820797748829879 kvar=-0.0 Phases=1
New Generator.pv_load_p6ulv14162_2 conn=wye bus1=p6ulv14162.2 kV=0.12 model=7 kW=0.5650866223177038 kvar=-0.0 Phases=1
New Generator.pv_load_p6ulv14163_2 conn=wye bus1=p6ulv14163.2 kV=0.12 model=7 kW=0.21791822779196332 kvar=-0.0 Phases=1
New Generator.pv_load_p6ulv14168_2 conn=wye bus1=p6ulv14168.2 kV=0.12 model=7 kW=0.22994272238554195 kvar=-0.0 Phases=1
New Generator.pv_load_p6ulv14170_1 conn=wye bus1=p6ulv14170.1 kV=0.12 model=7 kW=0.2464743360000108 kvar=-0.0 Phases=1
New Generator.pv_load_p6ulv14170_2 conn=wye bus1=p6ulv14170.2 kV=0.12 model=7 kW=0.2464743360000108 kvar=-0.0 Phases=1
New Generator.pv_load_p6ulv14172_2 conn=wye bus1=p6ulv14172.2 kV=0.12 model=7 kW=0.18485500056302565 kvar=-0.0 Phases=1
New Generator.pv_load_p6ulv14177_2 conn=wye bus1=p6ulv14177.2 kV=0.12 model=7 kW=0.2660116975443831 kvar=-0.0 Phases=1
New Generator.pv_load_p6ulv14178_2 conn=wye bus1=p6ulv14178.2 kV=0.12 model=7 kW=0.2705203194392382 kvar=-0.0 Phases=1
New Generator.pv_load_p6ulv14179_2 conn=wye bus1=p6ulv14179.2 kV=0.12 model=7 kW=0.120231119495309 kvar=-0.0 Phases=1
New Generator.pv_load_p6ulv14181_1 conn=wye bus1=p6ulv14181.1 kV=0.12 model=7 kW=0.22392972365177016 kvar=-0.0 Phases=1
New Generator.pv_load_p6ulv14181_2 conn=wye bus1=p6ulv14181.2 kV=0.12 model=7 kW=0.22392972365177016 kvar=-0.0 Phases=1
New Generator.pv_load_p6ulv14185_1 conn=wye bus1=p6ulv14185.1 kV=0.12 model=7 kW=0.11121372541820221 kvar=-0.0 Phases=1
New Generator.pv_load_p6ulv14189_1 conn=wye bus1=p6ulv14189.1 kV=0.12 model=7 kW=0.8085537075138464 kvar=-0.0 Phases=1
New Generator.pv_load_p6ulv14190 conn=wye bus1=p6ulv14190.1.2.3 kV=0.48 model=7 kW=14.947734742806231 kvar=-0.0 Phases=3
New Generator.pv_load_p6ulv14193_2 conn=wye bus1=p6ulv14193.2 kV=0.12 model=7 kW=0.30959504252798276 kvar=-0.0 Phases=1
New Generator.pv_load_p6ulv14194_2 conn=wye bus1=p6ulv14194.2 kV=0.12 model=7 kW=1.191791077198428 kvar=-0.0 Phases=1
New Generator.pv_load_p6ulv14196_1 conn=wye bus1=p6ulv14196.1 kV=0.12 model=7 kW=0.6312130767755794 kvar=-0.0 Phases=1
New Generator.pv_load_p6ulv14198_2 conn=wye bus1=p6ulv14198.2 kV=0.12 model=7 kW=0.3050864206331276 kvar=-0.0 Phases=1
New Generator.pv_load_p6ulv14199_2 conn=wye bus1=p6ulv14199.2 kV=0.12 model=7 kW=0.2795375632289485 kvar=-0.0 Phases=1
New Generator.pv_load_p6ulv14200_2 conn=wye bus1=p6ulv14200.2 kV=0.12 model=7 kW=0.15028889936913625 kvar=-0.0 Phases=1
New Generator.pv_load_p6ulv14201_1 conn=wye bus1=p6ulv14201.1 kV=0.12 model=7 kW=0.15780326919389484 kvar=-0.0 Phases=1
New Generator.pv_load_p6ulv14201_2 conn=wye bus1=p6ulv14201.2 kV=0.12 model=7 kW=0.15780326919389484 kvar=-0.0 Phases=1
New Generator.pv_load_p6ulv14202_1 conn=wye bus1=p6ulv14202.1 kV=0.12 model=7 kW=0.2720231934041899 kvar=-0.0 Phases=1
New Generator.pv_load_p6ulv14203_1 conn=wye bus1=p6ulv14203.1 kV=0.12 model=7 kW=0.3441611437218722 kvar=-0.0 Phases=1
New Generator.pv_load_p6ulv14214_1 conn=wye bus1=p6ulv14214.1 kV=0.12 model=7 kW=0.30959504252798276 kvar=-0.0 Phases=1
New Generator.pv_load_p6ulv14215_1 conn=wye bus1=p6ulv14215.1 kV=0.12 model=7 kW=0.2810404371939002 kvar=-0.0 Phases=1
New Generator.pv_load_p6ulv14217_1 conn=wye bus1=p6ulv14217.1 kV=0.12 model=7 kW=0.16682051298360506 kvar=-0.0 Phases=1
New Generator.pv_load_p6ulv14220_1 conn=wye bus1=p6ulv14220.1 kV=0.12 model=7 kW=0.3636985052662444 kvar=-0.0 Phases=1
New Generator.pv_load_p6ulv14221_1 conn=wye bus1=p6ulv14221.1 kV=0.12 model=7 kW=0.725895639441502 kvar=-0.0 Phases=1
New Generator.pv_load_p6ulv14223_1 conn=wye bus1=p6ulv14223.1 kV=0.12 model=7 kW=0.21190673193215645 kvar=-0.0 Phases=1
New Generator.pv_load_p6ulv14223_2 conn=wye bus1=p6ulv14223.2 kV=0.12 model=7 kW=0.21190673193215645 kvar=-0.0 Phases=1
New Generator.pv_load_p6ulv17968_2 conn=wye bus1=p6ulv17968.2 kV=0.12 model=7 kW=0.08566471772662661 kvar=-0.0 Phases=1
New Generator.pv_load_p6ulv17969_2 conn=wye bus1=p6ulv17969.2 kV=0.12 model=7 kW=0.2720231934041899 kvar=-0.0 Phases=1
New Generator.pv_load_p6ulv17974_2 conn=wye bus1=p6ulv17974.2 kV=0.12 model=7 kW=0.31109791649293445 kvar=-0.0 Phases=1
New Generator.pv_load_p6ulv17975_1 conn=wye bus1=p6ulv17975.1 kV=0.12 model=7 kW=0.32762953010740326 kvar=-0.0 Phases=1
New Generator.pv_load_p6ulv17976_1 conn=wye bus1=p6ulv17976.1 kV=0.12 model=7 kW=0.28855480701865877 kvar=-0.0 Phases=1
New Generator.pv_load_p6ulv17977_1 conn=wye bus1=p6ulv17977.1 kV=0.12 model=7 kW=0.17132913487846022 kvar=-0.0 Phases=1
New Generator.pv_load_p6ulv17978_1 conn=wye bus1=p6ulv17978.1 kV=0.12 model=7 kW=0.16080901712379822 kvar=-0.0 Phases=1
New Generator.pv_load_p6ulv17980_1 conn=wye bus1=p6ulv17980.1 kV=0.12 model=7 kW=0.2539887058247694 kvar=-0.0 Phases=1
New Generator.pv_load_p6ulv17983_1 conn=wye bus1=p6ulv17983.1 kV=0.12 model=7 kW=0.43283221052798815 kvar=-0.0 Phases=1
New Generator.pv_load_p6ulv17988_1 conn=wye bus1=p6ulv17988.1 kV=0.12 model=7 kW=0.18936362245788077 kvar=-0.0 Phases=1
New Generator.pv_load_p6ulv17988_2 conn=wye bus1=p6ulv17988.2 kV=0.12 model=7 kW=0.18936362245788077 kvar=-0.0 Phases=1
New Generator.pv_load_p6ulv17991_2 conn=wye bus1=p6ulv17991.2 kV=0.12 model=7 kW=0.27502894133409334 kvar=-0.0 Phases=1
New Generator.pv_load_p6ulv17995 conn=wye bus1=p6ulv17995.1.2.3 kV=0.48 model=7 kW=6.360222734634245 kvar=-0.0 Phases=3
New Generator.pv_load_p6ulv17997_1 conn=wye bus1=p6ulv17997.1 kV=0.12 model=7 kW=0.329132404072355 kvar=-0.0 Phases=1
New Generator.pv_load_p6ulv17998_2 conn=wye bus1=p6ulv17998.2 kV=0.12 model=7 kW=0.3050864206331276 kvar=-0.0 Phases=1
New Generator.pv_load_p6ulv17999_1 conn=wye bus1=p6ulv17999.1 kV=0.12 model=7 kW=0.09317908755138515 kvar=-0.0 Phases=1
New Generator.pv_load_p6ulv18008_1 conn=wye bus1=p6ulv18008.1 kV=0.12 model=7 kW=0.11722537156540556 kvar=-0.0 Phases=1
New Generator.pv_load_p6ulv18014_1 conn=wye bus1=p6ulv18014.1 kV=0.12 model=7 kW=0.19988374021254274 kvar=-0.0 Phases=1
New Generator.pv_load_p6ulv18017_2 conn=wye bus1=p6ulv18017.2 kV=0.12 model=7 kW=0.24196571410515566 kvar=-0.0 Phases=1
New Generator.pv_load_p6ulv18019_1 conn=wye bus1=p6ulv18019.1 kV=0.12 model=7 kW=0.18485500056302565 kvar=-0.0 Phases=1
New Generator.pv_load_p6ulv18020_1 conn=wye bus1=p6ulv18020.1 kV=0.12 model=7 kW=0.06312130767755791 kvar=-0.0 Phases=1
New Generator.pv_load_p6ulv18022_1 conn=wye bus1=p6ulv18022.1 kV=0.12 model=7 kW=0.1908664964228325 kvar=-0.0 Phases=1
New Generator.pv_load_p6ulv18023_2 conn=wye bus1=p6ulv18023.2 kV=0.12 model=7 kW=0.26150307564952796 kvar=-0.0 Phases=1
New Generator.pv_load_p6ulv18024_1 conn=wye bus1=p6ulv18024.1 kV=0.12 model=7 kW=0.3126007904578862 kvar=-0.0 Phases=1
New Generator.pv_load_p6ulv18026_1 conn=wye bus1=p6ulv18026.1 kV=0.12 model=7 kW=0.22693697445563854 kvar=-0.0 Phases=1
New Generator.pv_load_p6ulv18028_1 conn=wye bus1=p6ulv18028.1 kV=0.12 model=7 kW=0.2810404371939002 kvar=-0.0 Phases=1
New Generator.pv_load_p6ulv18030_2 conn=wye bus1=p6ulv18030.2 kV=0.12 model=7 kW=0.32011516028264475 kvar=-0.0 Phases=1
New Generator.pv_load_p6ulv18034_1 conn=wye bus1=p6ulv18034.1 kV=0.12 model=7 kW=0.33213815200225844 kvar=-0.0 Phases=1
New Generator.pv_load_p6ulv18037_1 conn=wye bus1=p6ulv18037.1 kV=0.12 model=7 kW=0.34115539579196874 kvar=-0.0 Phases=1
New Generator.pv_load_p6ulv18038_2 conn=wye bus1=p6ulv18038.2 kV=0.12 model=7 kW=0.3141036644228379 kvar=-0.0 Phases=1
New Generator.pv_load_p6ulv18040_2 conn=wye bus1=p6ulv18040.2 kV=0.12 model=7 kW=0.2960691768434174 kvar=-0.0 Phases=1
New Generator.pv_load_p6ulv18042_2 conn=wye bus1=p6ulv18042.2 kV=0.12 model=7 kW=0.33664677389711356 kvar=-0.0 Phases=1
New Generator.pv_load_p6ulv18044_2 conn=wye bus1=p6ulv18044.2 kV=0.12 model=7 kW=0.1698262609135085 kvar=-0.0 Phases=1
New Generator.pv_load_p6ulv18045_1 conn=wye bus1=p6ulv18045.1 kV=0.12 model=7 kW=0.15028889936913625 kvar=-0.0 Phases=1
New Generator.pv_load_p6ulv18045_2 conn=wye bus1=p6ulv18045.2 kV=0.12 model=7 kW=0.15028889936913625 kvar=-0.0 Phases=1
New Generator.pv_load_p6ulv18047_2 conn=wye bus1=p6ulv18047.2 kV=0.12 model=7 kW=0.10820797748829879 kvar=-0.0 Phases=1
New Generator.pv_load_p6ulv18049_1 conn=wye bus1=p6ulv18049.1 kV=0.12 model=7 kW=0.2825433111588519 kvar=-0.0 Phases=1
New Generator.pv_load_p6ulv18050_2 conn=wye bus1=p6ulv18050.2 kV=0.12 model=7 kW=0.4087862270887607 kvar=-0.0 Phases=1
New Generator.pv_load_p6ulv18052_2 conn=wye bus1=p6ulv18052.2 kV=0.12 model=7 kW=0.9438138672334653 kvar=-0.0 Phases=1
New Generator.pv_load_p6ulv18056_1 conn=wye bus1=p6ulv18056.1 kV=0.12 model=7 kW=0.11572249760045385 kvar=-0.0 Phases=1
New Generator.pv_load_p6ulv18056_2 conn=wye bus1=p6ulv18056.2 kV=0.12 model=7 kW=0.11572249760045385 kvar=-0.0 Phases=1
New Generator.pv_load_p6ulv18057_1 conn=wye bus1=p6ulv18057.1 kV=0.12 model=7 kW=0.37872874778972654 kvar=-0.0 Phases=1
New Generator.pv_load_p6ulv18058_2 conn=wye bus1=p6ulv18058.2 kV=0.12 model=7 kW=0.360692757336341 kvar=-0.0 Phases=1
New Generator.pv_load_p6ulv18059_1 conn=wye bus1=p6ulv18059.1 kV=0.12 model=7 kW=0.26901744547428647 kvar=-0.0 Phases=1
New Generator.pv_load_p6ulv18067_2 conn=wye bus1=p6ulv18067.2 kV=0.12 model=7 kW=0.7123697737569367 kvar=-0.0 Phases=1
New Generator.pv_load_p6ulv18071_1 conn=wye bus1=p6ulv18071.1 kV=0.12 model=7 kW=1.4457797830231973 kvar=-0.0 Phases=1
New Generator.pv_load_p6ulv18073_1 conn=wye bus1=p6ulv18073.1 kV=0.12 model=7 kW=0.21791822779196332 kvar=-0.0 Phases=1
New Generator.pv_load_p6ulv18077_1 conn=wye bus1=p6ulv18077.1 kV=0.12 model=7 kW=0.17583775677331534 kvar=-0.0 Phases=1
New Generator.pv_load_p6ulv18078_2 conn=wye bus1=p6ulv18078.2 kV=0.12 model=7 kW=0.2810404371939002 kvar=-0.0 Phases=1
New Generator.pv_load_p6ulv18079_1 conn=wye bus1=p6ulv18079.1 kV=0.12 model=7 kW=0.11872824553035728 kvar=-0.0 Phases=1
New Generator.pv_load_p6ulv18080_2 conn=wye bus1=p6ulv18080.2 kV=0.12 model=7 kW=0.21491247986205989 kvar=-0.0 Phases=1
New Generator.pv_load_p6ulv18082_2 conn=wye bus1=p6ulv18082.2 kV=0.12 model=7 kW=0.15179177333408797 kvar=-0.0 Phases=1
New Generator.pv_load_p6ulv18084_1 conn=wye bus1=p6ulv18084.1 kV=0.12 model=7 kW=0.42531784070322953 kvar=-0.0 Phases=1
New Generator.pv_load_p6ulv18087_2 conn=wye bus1=p6ulv18087.2 kV=0.12 model=7 kW=0.19838086624759108 kvar=-0.0 Phases=1
New Generator.pv_load_p6ulv18089_1 conn=wye bus1=p6ulv18089.1 kV=0.12 model=7 kW=0.21942110175691504 kvar=-0.0 Phases=1
New Generator.pv_load_p6ulv18090_2 conn=wye bus1=p6ulv18090.2 kV=0.12 model=7 kW=0.2720231934041899 kvar=-0.0 Phases=1
New Generator.pv_load_p6ulv18091_2 conn=wye bus1=p6ulv18091.2 kV=0.12 model=7 kW=0.19387224435273592 kvar=-0.0 Phases=1
New Generator.pv_load_p6ulv18097_1 conn=wye bus1=p6ulv18097.1 kV=0.12 model=7 kW=0.21190673193215645 kvar=-0.0 Phases=1
New Generator.pv_load_p6ulv18099_2 conn=wye bus1=p6ulv18099.2 kV=0.12 model=7 kW=0.15479752126399138 kvar=-0.0 Phases=1
New Generator.pv_load_p6ulv18101_1 conn=wye bus1=p6ulv18101.1 kV=0.12 model=7 kW=0.1322542615023192 kvar=-0.0 Phases=1
New Generator.pv_load_p6ulv18102_1 conn=wye bus1=p6ulv18102.1 kV=0.12 model=7 kW=0.1923693703877842 kvar=-0.0 Phases=1
New Generator.pv_load_p6ulv18107_2 conn=wye bus1=p6ulv18107.2 kV=0.12 model=7 kW=0.18936362245788077 kvar=-0.0 Phases=1
New Generator.pv_load_p6ulv18109_2 conn=wye bus1=p6ulv18109.2 kV=0.12 model=7 kW=0.18786074849292905 kvar=-0.0 Phases=1
New Generator.pv_load_p6ulv18118_2 conn=wye bus1=p6ulv18118.2 kV=0.12 model=7 kW=0.4628896898270224 kvar=-0.0 Phases=1
New Generator.pv_load_p6ulv18119_1 conn=wye bus1=p6ulv18119.1 kV=0.12 model=7 kW=0.14427740350932938 kvar=-0.0 Phases=1
New Generator.pv_load_p6ulv18119_2 conn=wye bus1=p6ulv18119.2 kV=0.12 model=7 kW=0.14427740350932938 kvar=-0.0 Phases=1
New Generator.pv_load_p6ulv18120_2 conn=wye bus1=p6ulv18120.2 kV=0.12 model=7 kW=0.21340960589710817 kvar=-0.0 Phases=1
New Generator.pv_load_p6ulv18123_1 conn=wye bus1=p6ulv18123.1 kV=0.12 model=7 kW=0.15930614315884653 kvar=-0.0 Phases=1
New Generator.pv_load_p6ulv18125_1 conn=wye bus1=p6ulv18125.1 kV=0.12 model=7 kW=0.1563003952289431 kvar=-0.0 Phases=1