New Load.motor_load_p6ulv972_2 conn=wye bus1=p6ulv972.2 kV=0.12 kW=1.2502203664546419 kvar=0.25004407329092837 Phases=1 Vminpu=0.0 Vmaxpu=1.2 model=1
New Load.motor_load_p6ulv2310_1 conn=wye bus1=p6ulv2310.1 kV=0.12 kW=1.115335718889258 kvar=0.22306714377785164 Phases=1 Vminpu=0.0 Vmaxpu=1.2 model=1
New Load.motor_load_p6ulv2310_2 conn=wye bus1=p6ulv2310.2 kV=0.12 kW=1.261077084666933 kvar=0.2522154169333866 Phases=1 Vminpu=0.0 Vmaxpu=1.2 model=1
New Load.motor_load_p6ulv2312_1 conn=wye bus1=p6ulv2312.1 kV=0.12 kW=1.2335399330977292 kvar=0.24670798661954585 Phases=1 Vminpu=0.0 Vmaxpu=1.2 model=1
New Load.motor_load_p6ulv2312_2 conn=wye bus1=p6ulv2312.2 kV=0.12 kW=1.2426234112351777 kvar=0.24852468224703556 Phases=1 Vminpu=0.0 Vmaxpu=1.2 model=1
New Load.motor_load_p6ulv2313_1 conn=wye bus1=p6ulv2313.1 kV=0.12 kW=1.1901526015169146 kvar=0.23803052030338293 Phases=1 Vminpu=0.0 Vmaxpu=1.2 model=1
New Load.motor_load_p6ulv2316_2 conn=wye bus1=p6ulv2316.2 kV=0.12 kW=1.0619366778058312 kvar=0.21238733556116626 Phases=1 Vminpu=0.0 Vmaxpu=1.2 model=1
New Load.motor_load_p6ulv2321_1 conn=wye bus1=p6ulv2321.1 kV=0.12 kW=1.2414670272843826 kvar=0.24829340545687653 Phases=1 Vminpu=0.0 Vmaxpu=1.2 model=1
New Load.motor_load_p6ulv2321_2 conn=wye bus1=p6ulv2321.2 kV=0.12 kW=1.2212231920307692 kvar=0.24424463840615385 Phases=1 Vminpu=0.0 Vmaxpu=1.2 model=1
New Load.motor_load_p6ulv2327_2 conn=wye bus1=p6ulv2327.2 kV=0.12 kW=1.1759412551923254 kvar=0.23518825103846508 Phases=1 Vminpu=0.0 Vmaxpu=1.2 model=1
New Load.motor_load_p6ulv2333_2 conn=wye bus1=p6ulv2333.2 kV=0.12 kW=1.1305100862511968 kvar=0.22610201725023937 Phases=1 Vminpu=0.0 Vmaxpu=1.2 model=1
New Load.motor_load_p6ulv2335_2 conn=wye bus1=p6ulv2335.2 kV=0.12 kW=1.0694773121468244 kvar=0.21389546242936489 Phases=1 Vminpu=0.0 Vmaxpu=1.2 model=1
New Load.motor_load_p6ulv2337_1 conn=wye bus1=p6ulv2337.1 kV=0.12 kW=1.1368456781774494 kvar=0.22736913563548988 Phases=1 Vminpu=0.0 Vmaxpu=1.2 model=1
New Load.motor_load_p6ulv2337_2 conn=wye bus1=p6ulv2337.2 kV=0.12 kW=1.2156409809214748 kvar=0.24312819618429496 Phases=1 Vminpu=0.0 Vmaxpu=1.2 model=1
New Load.motor_load_p6ulv2338_2 conn=wye bus1=p6ulv2338.2 kV=0.12 kW=1.1008122774975175 kvar=0.22016245549950353 Phases=1 Vminpu=0.0 Vmaxpu=1.2 model=1
New Load.motor_load_p6ulv2339_2 conn=wye bus1=p6ulv2339.2 kV=0.12 kW=1.135677563572912 kvar=0.2271355127145824 Phases=1 Vminpu=0.0 Vmaxpu=1.2 model=1
New Load.motor_load_p6ulv2340_1 conn=wye bus1=p6ulv2340.1 kV=0.12 kW=1.0895645130386487 kvar=0.21791290260772975 Phases=1 Vminpu=0.0 Vmaxpu=1.2 model=1
New Load.motor_load_p6ulv2340_2 conn=wye bus1=p6ulv2340.2 kV=0.12 kW=1.249103747581736 kvar=0.2498207495163472 Phases=1 Vminpu=0.0 Vmaxpu=1.2 model=1
New Load.motor_load_p6ulv2342_2 conn=wye bus1=p6ulv2342.2 kV=0.12 kW=1.0655295509127332 kvar=0.21310591018254665 Phases=1 Vminpu=0.0 Vmaxpu=1.2 model=1
New Load.motor_load_p6ulv2345_2 conn=wye bus1=p6ulv2345.2 kV=0.12 kW=1.1196154344312026 kvar=0.22392308688624052 Phases=1 Vminpu=0.0 Vmaxpu=1.2 model=1
New Load.motor_load_p6ulv2346_1 conn=wye bus1=p6ulv2346.1 kV=0.12 kW=1.1350020422735119 kvar=0.22700040845470237 Phases=1 Vminpu=0.0 Vmaxpu=1.2 model=1
New Load.motor_load_p6ulv2346_2 conn=wye bus1=p6ulv2346.2 kV=0.12 kW=1.2248114315368808 kvar=0.24496228630737615 Phases=1 Vminpu=0.0 Vmaxpu=1.2 model=1
New Load.motor_load_p6ulv2347_2 conn=wye bus1=p6ulv2347.2 kV=0.12 kW=1.0931058724459681 kvar=0.21862117448919363 Phases=1 Vminpu=0.0 Vmaxpu=1.2 model=1
New Load.motor_load_p6ulv2348_1 conn=wye bus1=p6ulv2348.1 kV=0.12 kW=1.237705611694438 kvar=0.24754112233888761 Phases=1 Vminpu=0.0 Vmaxpu=1.2 model=1
New Load.motor_load_p6ulv2349_1 conn=wye bus1=p6ulv2349.1 kV=0.12 kW=1.2465478880811658 kvar=0.24930957761623318 Phases=1 Vminpu=0.0 Vmaxpu=1.2 model=1
New Load.motor_load_p6ulv2349_2 conn=wye bus1=p6ulv2349.2 kV=0.12 kW=1.1877988764901417 kvar=0.23755977529802835 Phases=1 Vminpu=0.0 Vmaxpu=1.2 model=1
New Load.motor_load_p6ulv2350_1 conn=wye bus1=p6ulv2350.1 kV=0.12 kW=1.1842550646141166 kvar=0.23685101292282332 Phases=1 Vminpu=0.0 Vmaxpu=1.2 model=1
New Load.motor_load_p6ulv2351_1 conn=wye bus1=p6ulv2351.1 kV=0.12 kW=1.257611115722967 kvar=0.25152222314459344 Phases=1 Vminpu=0.0 Vmaxpu=1.2 model=1
New Load.motor_load_p6ulv2353_2 conn=wye bus1=p6ulv2353.2 kV=0.12 kW=1.0677430254162381 kvar=0.21354860508324763 Phases=1 Vminpu=0.0 Vmaxpu=1.2 model=1
New Load.motor_load_p6ulv2354_2 conn=wye bus1=p6ulv2354.2 kV=0.12 kW=1.196225606993507 kvar=0.23924512139870144 Phases=1 Vminpu=0.0 Vmaxpu=1.2 model=1
New Load.motor_load_p6ulv2355_2 conn=wye bus1=p6ulv2355.2 kV=0.12 kW=1.233650887938098 kvar=0.24673017758761961 Phases=1 Vminpu=0.0 Vmaxpu=1.2 model=1
New Load.motor_load_p6ulv2358_1 conn=wye bus1=p6ulv2358.1 kV=0.12 kW=1.2105706570398378 kvar=0.24211413140796756 Phases=1 Vminpu=0.0 Vmaxpu=1.2 model=1
New Load.motor_load_p6ulv2361_1 conn=wye bus1=p6ulv2361.1 kV=0.12 kW=1.1833451306648868 kvar=0.23666902613297736 Phases=1 Vminpu=0.0 Vmaxpu=1.2 model=1
New Load.motor_load_p6ulv2362_1 conn=wye bus1=p6ulv2362.1 kV=0.12 kW=1.0633167192678368 kvar=0.21266334385356736 Phases=1 Vminpu=0.0 Vmaxpu=1.2 model=1
New Load.motor_load_p6ulv2364_2 conn=wye bus1=p6ulv2364.2 kV=0.12 kW=1.2234228037079975 kvar=0.2446845607415995 Phases=1 Vminpu=0.0 Vmaxpu=1.2 model=1
New Load.motor_load_p6ulv2365_2 conn=wye bus1=p6ulv2365.2 kV=0.12 kW=1.0976709220408132 kvar=0.21953418440816264 Phases=1 Vminpu=0.0 Vmaxpu=1.2 model=1
New Load.motor_load_p6ulv2366_2 conn=wye bus1=p6ulv2366.2 kV=0.12 kW=1.2522690919669368 kvar=0.2504538183933874 Phases=1 Vminpu=0.0 Vmaxpu=1.2 model=1
New Load.motor_load_p6ulv2367_2 conn=wye bus1=p6ulv2367.2 kV=0.12 kW=1.0569760473080636 kvar=0.21139520946161272 Phases=1 Vminpu=0.0 Vmaxpu=1.2 model=1
New Load.motor_load_p6ulv2368_1 conn=wye bus1=p6ulv2368.1 kV=0.12 kW=1.2182037721387113 kvar=0.24364075442774227 Phases=1 Vminpu=0.0 Vmaxpu=1.2 model=1
New Load.motor_load_p6ulv2369_2 conn=wye bus1=p6ulv2369.2 kV=0.12 kW=1.1421618265750821 kvar=0.22843236531501643 Phases=1 Vminpu=0.0 Vmaxpu=1.2 model=1
New Load.motor_load_p6ulv2370_1 conn=wye bus1=p6ulv2370.1 kV=0.12 kW=1.1161770823549182 kvar=0.22323541647098366 Phases=1 Vminpu=0.0 Vmaxpu=1.2 model=1
New Load.motor_load_p6ulv2370_2 conn=wye bus1=p6ulv2370.2 kV=0.12 kW=1.1611432070037853 kvar=0.23222864140075705 Phases=1 Vminpu=0.0 Vmaxpu=1.2 model=1
New Load.motor_load_p6ulv2371_1 conn=wye bus1=p6ulv2371.1 kV=0.12 kW=1.0875464074121384 kvar=0.21750928148242768 Phases=1 Vminpu=0.0 Vmaxpu=1.2 model=1
New Load.motor_load_p6ulv2371_2 conn=wye bus1=p6ulv2371.2 kV=0.12 kW=1.0550468768019827 kvar=0.21100937536039654 Phases=1 Vminpu=0.0 Vmaxpu=1.2 model=1
New Load.motor_load_p6ulv2373_1 conn=wye bus1=p6ulv2373.1 kV=0.12 kW=1.187413559578668 kvar=0.23748271191573359 Phases=1 Vminpu=0.0 Vmaxpu=1.2 model=1
New Load.motor_load_p6ulv2373_2 conn=wye bus1=p6ulv2373.2 kV=0.12 kW=1.0847131955504992 kvar=0.21694263911009984 Phases=1 Vminpu=0.0 Vmaxpu=1.2 model=1
New Load.motor_load_p6ulv2374_1 conn=wye bus1=p6ulv2374.1 kV=0.12 kW=1.0556375114654641 kvar=0.21112750229309285 Phases=1 Vminpu=0.0 Vmaxpu=1.2 model=1
New Load.motor_load_p6ulv2375_1 conn=wye bus1=p6ulv2375.1 kV=0.12 kW=1.0974669413592864 kvar=0.21949338827185727 Phases=1 Vminpu=0.0 Vmaxpu=1.2 model=1
New Load.motor_load_p6ulv2376_2 conn=wye bus1=p6ulv2376.2 kV=0.12 kW=1.0906695494879866 kvar=0.21813390989759732 Phases=1 Vminpu=0.0 Vmaxpu=1.2 model=1
New Load.motor_load_p6ulv2378_2 conn=wye bus1=p6ulv2378.2 kV=0.12 kW=1.2484912594888757 kvar=0.24969825189777517 Phases=1 Vminpu=0.0 Vmaxpu=1.2 model=1
New Load.motor_load_p6ulv2379_1 conn=wye bus1=p6ulv2379.1 kV=0.12 kW=1.1824778539979275 kvar=0.2364955707995855 Phases=1 Vminpu=0.0 Vmaxpu=1.2 model=1
New Load.motor_load_p6ulv2380_2 conn=wye bus1=p6ulv2380.2 kV=0.12 kW=1.1212758010487909 kvar=0.2242551602097582 Phases=1 Vminpu=0.0 Vmaxpu=1.2 model=1
New Load.motor_load_p6ulv2381_1 conn=wye bus1=p6ulv2381.1 kV=0.12 kW=1.1066568976929656 kvar=0.22133137953859314 Phases=1 Vminpu=0.0 Vmaxpu=1.2 model=1
New Load.motor_load_p6ulv2382_1 conn=wye bus1=p6ulv2382.1 kV=0.12 kW=1.2388976872878823 kvar=0.24777953745757647 Phases=1 Vminpu=0.0 Vmaxpu=1.2 model=1
New Load.motor_load_p6ulv2382_2 conn=wye bus1=p6ulv2382.2 kV=0.12 kW=1.2593445561816168 kvar=0.2518689112363234 Phases=1 Vminpu=0.0 Vmaxpu=1.2 model=1
New Load.motor_load_p6ulv2389_1 conn=wye bus1=p6ulv2389.1 kV=0.12 kW=1.1050868388191644 kvar=0.22101736776383288 Phases=1 Vminpu=0.0 Vmaxpu=1.2 model=1
New Load.motor_load_p6ulv2390_1 conn=wye bus1=p6ulv2390.1 kV=0.12 kW=1.114375723475841 kvar=0.2228751446951682 Phases=1 Vminpu=0.0 Vmaxpu=1.2 model=1
New Load.motor_load_p6ulv2390_2 conn=wye bus1=p6ulv2390.2 kV=0.12 kW=1.128586593175216 kvar=0.22571731863504318 Phases=1 Vminpu=0.0 Vmaxpu=1.2 model=1
New Load.motor_load_p6ulv2392_2 conn=wye bus1=p6ulv2392.2 kV=0.12 kW=1.1490515811880064 kvar=0.2298103162376013 Phases=1 Vminpu=0.0 Vmaxpu=1.2 model=1
New Load.motor_load_p6ulv2396_1 conn=wye bus1=p6ulv2396.1 kV=0.12 kW=1.194479562297886 kvar=0.23889591245957723 Phases=1 Vminpu=0.0 Vmaxpu=1.2 model=1
New Load.motor_load_p6ulv2397_2 conn=wye bus1=p6ulv2397.2 kV=0.12 kW=1.0554755469368504 kvar=0.21109510938737008 Phases=1 Vminpu=0.0 Vmaxpu=1.2 model=1
New Load.motor_load_p6ulv2399_2 conn=wye bus1=p6ulv2399.2 kV=0.12 kW=1.2037640318444898 kvar=0.24075280636889795 Phases=1 Vminpu=0.0 Vmaxpu=1.2 model=1
New Load.motor_load_p6ulv2400_1 conn=wye bus1=p6ulv2400.1 kV=0.12 kW=1.1463551414479152 kvar=0.22927102828958304 Phases=1 Vminpu=0.0 Vmaxpu=1.2 model=1
New Load.motor_load_p6ulv2402_2 conn=wye bus1=p6ulv2402.2 kV=0.12 kW=1.1972925329409676 kvar=0.23945850658819354 Phases=1 Vminpu=0.0 Vmaxpu=1.2 model=1
New Load.motor_load_p6ulv2403_1 conn=wye bus1=p6ulv2403.1 kV=0.12 kW=1.0642158516373659 kvar=0.21284317032747319 Phases=1 Vminpu=0.0 Vmaxpu=1.2 model=1
New Load.motor_load_p6ulv2404_1 conn=wye bus1=p6ulv2404.1 kV=0.12 kW=1.199089223469071 kvar=0.23981784469381423 Phases=1 Vminpu=0.0 Vmaxpu=1.2 model=1
New Load.motor_load_p6ulv2404_2 conn=wye bus1=p6ulv2404.2 kV=0.12 kW=1.1253321588899963 kvar=0.22506643177799926 Phases=1 Vminpu=0.0 Vmaxpu=1.2 model=1
New Load.motor_load_p6ulv2408_1 conn=wye bus1=p6ulv2408.1 kV=0.12 kW=1.0648610206998177 kvar=0.21297220413996354 Phases=1 Vminpu=0.0 Vmaxpu=1.2 model=1
New Load.motor_load_p6ulv2411_1 conn=wye bus1=p6ulv2411.1 kV=0.12 kW=1.0691957791535638 kvar=0.21383915583071278 Phases=1 Vminpu=0.0 Vmaxpu=1.2 model=1
New Load.motor_load_p6ulv2416_1 conn=wye bus1=p6ulv2416.1 kV=0.12 kW=1.2158843709799438 kvar=0.24317687419598877 Phases=1 Vminpu=0.0 Vmaxpu=1.2 model=1
New Load.motor_load_p6ulv2417_2 conn=wye bus1=p6ulv2417.2 kV=0.12 kW=1.1678630667004846 kvar=0.23357261334009694 Phases=1 Vminpu=0.0 Vmaxpu=1.2 model=1
New Load.motor_load_p6ulv2420_1 conn=wye bus1=p6ulv2420.1 kV=0.12 kW=1.0947028603342825 kvar=0.21894057206685652 Phases=1 Vminpu=0.0 Vmaxpu=1.2 model=1
New Load.motor_load_p6ulv2424_1 conn=wye bus1=p6ulv2424.1 kV=0.12 kW=1.1489671205747065 kvar=0.2297934241149413 Phases=1 Vminpu=0.0 Vmaxpu=1.2 model=1
New Load.motor_load_p6ulv2425_2 conn=wye bus1=p6ulv2425.2 kV=0.12 kW=1.146658902832187 kvar=0.2293317805664374 Phases=1 Vminpu=0.0 Vmaxpu=1.2 model=1
New Load.motor_load_p6ulv2429 conn=wye bus1=p6ulv2429.1.2.3 kV=0.48 kW=1.17549481186558 kvar=0.235098962373116 Phases=3 Vminpu=0.0 Vmaxpu=1.2 model=1
New Load.motor_load_p6ulv2430_1 conn=wye bus1=p6ulv2430.1 kV=0.12 kW=1.1659039260997202 kvar=0.23318078521994404 Phases=1 Vminpu=0.0 Vmaxpu=1.2 model=1
New Load.motor_load_p6ulv2445_1 conn=wye bus1=p6ulv2445.1 kV=0.12 kW=1.1160979901376122 kvar=0.22321959802752245 Phases=1 Vminpu=0.0 Vmaxpu=1.2 model=1
New Load.motor_load_p6ulv2445_2 conn=wye bus1=p6ulv2445.2 kV=0.12 kW=1.140807352797185 kvar=0.228161470559437 Phases=1 Vminpu=0.0 Vmaxpu=1.2 model=1
New Load.motor_load_p6ulv2446_2 conn=wye bus1=p6ulv2446.2 kV=0.12 kW=1.1387361376657097 kvar=0.22774722753314194 Phases=1 Vminpu=0.0 Vmaxpu=1.2 model=1
New Load.motor_load_p6ulv2447_1 conn=wye bus1=p6ulv2447.1 kV=0.12 kW=1.2073654502755444 kvar=0.2414730900551089 Phases=1 Vminpu=0.0 Vmaxpu=1.2 model=1
New Load.motor_load_p6ulv2447_2 conn=wye bus1=p6ulv2447.2 kV=0.12 kW=1.2160977942205753 kvar=0.24321955884411506 Phases=1 Vminpu=0.0 Vmaxpu=1.2 model=1
New Load.motor_load_p6ulv2450_2 conn=wye bus1=p6ulv2450.2 kV=0.12 kW=1.12454357323617 kvar=0.224908714647234 Phases=1 Vminpu=0.0 Vmaxpu=1.2 model=1
New Load.motor_load_p6ulv2451_1 conn=wye bus1=p6ulv2451.1 kV=0.12 kW=1.1060170879476017 kvar=0.22120341758952033 Phases=1 Vminpu=0.0 Vmaxpu=1.2 model=1
New Load.motor_load_p6ulv2453_2 conn=wye bus1=p6ulv2453.2 kV=0.12 kW=1.2595999664972022 kvar=0.2519199932994404 Phases=1 Vminpu=0.0 Vmaxpu=1.2 model=1
New Load.motor_load_p6ulv2454_1 conn=wye bus1=p6ulv2454.1 kV=0.12 kW=1.0593124074122688 kvar=0.2118624814824538 Phases=1 Vminpu=0.0 Vmaxpu=1.2 model=1
New Load.motor_load_p6ulv2455_2 conn=wye bus1=p6ulv2455.2 kV=0.12 kW=1.1497837589804627 kvar=0.22995675179609254 Phases=1 Vminpu=0.0 Vmaxpu=1.2 model=1
New Load.motor_load_p6ulv3611_2 conn=wye bus1=p6ulv3611.2 kV=0.12 kW=1.117910750369016 kvar=0.22358215007380322 Phases=1 Vminpu=0.0 Vmaxpu=1.2 model=1
New Load.motor_load_p6ulv3612_2 conn=wye bus1=p6ulv3612.2 kV=0.12 kW=1.2095025562191213 kvar=0.24190051124382428 Phases=1 Vminpu=0.0 Vmaxpu=1.2 model=1
New Load.motor_load_p6ulv3613_2 conn=wye bus1=p6ulv3613.2 kV=0.12 kW=1.071242800105628 kvar=0.2142485600211256 Phases=1 Vminpu=0.0 Vmaxpu=1.2 model=1
New Load.motor_load_p6ulv3624_1 conn=wye bus1=p6ulv3624.1 kV=0.12 kW=1.0860990234934225 kvar=0.21721980469868452 Phases=1 Vminpu=0.0 Vmaxpu=1.2 model=1
New Load.motor_load_p6ulv3627_1 conn=wye bus1=p6ulv3627.1 kV=0.12 kW=1.222173587715018 kvar=0.2444347175430036 Phases=1 Vminpu=0.0 Vmaxpu=1.2 model=1
New Load.motor_load_p6ulv3627_2 conn=wye bus1=p6ulv3627.2 kV=0.12 kW=1.216105749223766 kvar=0.24322114984475318 Phases=1 Vminpu=0.0 Vmaxpu=1.2 model=1
New Load.motor_load_p6ulv4279_1 conn=wye bus1=p6ulv4279.1 kV=0.12 kW=1.169749784358256 kvar=0.2339499568716512 Phases=1 Vminpu=0.0 Vmaxpu=1.2 model=1
New Load.motor_load_p6ulv4284 conn=wye bus1=p6ulv4284.1.2.3 kV=0.48 kW=1.1046361869944294 kvar=0.2209272373988859 Phases=3 Vminpu=0.0 Vmaxpu=1.2 model=1
New Load.motor_load_p6ulv4286_2 conn=wye bus1=p6ulv4286.2 kV=0.12 kW=1.1547699034171686 kvar=0.23095398068343373 Phases=1 Vminpu=0.0 Vmaxpu=1.2 model=1
New Load.motor_load_p6ulv4287_1 conn=wye bus1=p6ulv4287.1 kV=0.12 kW=1.1855225398793205 kvar=0.23710450797586413 Phases=1 Vminpu=0.0 Vmaxpu=1.2 model=1
New Load.motor_load_p6ulv4291_2 conn=wye bus1=p6ulv4291.2 kV=0.12 kW=1.209845319792761 kvar=0.24196906395855222 Phases=1 Vminpu=0.0 Vmaxpu=1.2 model=1
New Load.motor_load_p6ulv4292_2 conn=wye bus1=p6ulv4292.2 kV=0.12 kW=1.2534071320739812 kvar=0.25068142641479624 Phases=1 Vminpu=0.0 Vmaxpu=1.2 model=1
New Load.motor_load_p6ulv4293_1 conn=wye bus1=p6ulv4293.1 kV=0.12 kW=1.1453820705819078 kvar=0.22907641411638158 Phases=1 Vminpu=0.0 Vmaxpu=1.2 model=1
New Load.motor_load_p6ulv4294_2 conn=wye bus1=p6ulv4294.2 kV=0.12 kW=1.0522108029096924 kvar=0.2104421605819385 Phases=1 Vminpu=0.0 Vmaxpu=1.2 model=1
New Load.motor_load_p6ulv4296_1 conn=wye bus1=p6ulv4296.1 kV=0.12 kW=1.1165607172805005 kvar=0.22331214345610012 Phases=1 Vminpu=0.0 Vmaxpu=1.2 model=1
New Load.motor_load_p6ulv4298_2 conn=wye bus1=p6ulv4298.2 kV=0.12 kW=1.2526194134196944 kvar=0.2505238826839389 Phases=1 Vminpu=0.0 Vmaxpu=1.2 model=1
New Load.motor_load_p6ulv4300_1 conn=wye bus1=p6ulv4300.1 kV=0.12 kW=1.0612810650746258 kvar=0.21225621301492517 Phases=1 Vminpu=0.0 Vmaxpu=1.2 model=1
New Load.motor_load_p6ulv4301_1 conn=wye bus1=p6ulv4301.1 kV=0.12 kW=1.2498066466750655 kvar=0.2499613293350131 Phases=1 Vminpu=0.0 Vmaxpu=1.2 model=1
New Load.motor_load_p6ulv4304_1 conn=wye bus1=p6ulv4304.1 kV=0.12 kW=1.25503475528814 kvar=0.251006951057628 Phases=1 Vminpu=0.0 Vmaxpu=1.2 model=1
New Load.motor_load_p6ulv4305_1 conn=wye bus1=p6ulv4305.1 kV=0.12 kW=1.0890597371533586 kvar=0.21781194743067173 Phases=1 Vminpu=0.0 Vmaxpu=1.2 model=1
New Load.motor_load_p6ulv4305_2 conn=wye bus1=p6ulv4305.2 kV=0.12 kW=1.143370032005548 kvar=0.2286740064011096 Phases=1 Vminpu=0.0 Vmaxpu=1.2 model=1
New Load.motor_load_p6ulv4307_2 conn=wye bus1=p6ulv4307.2 kV=0.12 kW=1.087150276109009 kvar=0.2174300552218018 Phases=1 Vminpu=0.0 Vmaxpu=1.2 model=1
New Load.motor_load_p6ulv4308_2 conn=wye bus1=p6ulv4308.2 kV=0.12 kW=1.127846552822778 kvar=0.2255693105645556 Phases=1 Vminpu=0.0 Vmaxpu=1.2 model=1
New Load.motor_load_p6ulv4310_2 conn=wye bus1=p6ulv4310.2 kV=0.12 kW=1.1569545621904609 kvar=0.23139091243809218 Phases=1 Vminpu=0.0 Vmaxpu=1.2 model=1
New Load.motor_load_p6ulv8198_2 conn=wye bus1=p6ulv8198.2 kV=0.12 kW=1.2275422618201046 kvar=0.24550845236402094 Phases=1 Vminpu=0.0 Vmaxpu=1.2 model=1
New Load.motor_load_p6ulv8203_1 conn=wye bus1=p6ulv8203.1 kV=0.12 kW=1.1894090424250496 kvar=0.23788180848500995 Phases=1 Vminpu=0.0 Vmaxpu=1.2 model=1
New Load.motor_load_p6ulv8203_2 conn=wye bus1=p6ulv8203.2 kV=0.12 kW=1.1826652119399563 kvar=0.23653304238799128 Phases=1 Vminpu=0.0 Vmaxpu=1.2 model=1
New Load.motor_load_p6ulv8204_2 conn=wye bus1=p6ulv8204.2 kV=0.12 kW=1.071815113513971 kvar=0.21436302270279423 Phases=1 Vminpu=0.0 Vmaxpu=1.2 model=1
New Load.motor_load_p6ulv8207_1 conn=wye bus1=p6ulv8207.1 kV=0.12 kW=1.2521927775574613 kvar=0.25043855551149224 Phases=1 Vminpu=0.0 Vmaxpu=1.2 model=1
New Load.motor_load_p6ulv8209_2 conn=wye bus1=p6ulv8209.2 kV=0.12 kW=1.2418111035629253 kvar=0.24836222071258507 Phases=1 Vminpu=0.0 Vmaxpu=1.2 model=1
New Load.motor_load_p6ulv8214_1 conn=wye bus1=p6ulv8214.1 kV=0.12 kW=1.2171951890363055 kvar=0.24343903780726112 Phases=1 Vminpu=0.0 Vmaxpu=1.2 model=1
New Load.motor_load_p6ulv8215_2 conn=wye bus1=p6ulv8215.2 kV=0.12 kW=1.125101685507385 kvar=0.225020337101477 Phases=1 Vminpu=0.0 Vmaxpu=1.2 model=1
New Load.motor_load_p6ulv8216_2 conn=wye bus1=p6ulv8216.2 kV=0.12 kW=1.2464378065478408 kvar=0.24928756130956817 Phases=1 Vminpu=0.0 Vmaxpu=1.2 model=1
New Load.motor_load_p6ulv8217_2 conn=wye bus1=p6ulv8217.2 kV=0.12 kW=1.2344694290347062 kvar=0.24689388580694127 Phases=1 Vminpu=0.0 Vmaxpu=1.2 model=1
New Load.motor_load_p6ulv11274_1 conn=wye bus1=p6ulv11274.1 kV=0.12 kW=1.2221882101134578 kvar=0.24443764202269158 Phases=1 Vminpu=0.0 Vmaxpu=1.2 model=1
New Load.motor_load_p6ulv11329_2 conn=wye bus1=p6ulv11329.2 kV=0.12 kW=1.1092738599660028 kvar=0.22185477199320058 Phases=1 Vminpu=0.0 Vmaxpu=1.2 model=1
New Load.motor_load_p6ulv11330_1 conn=wye bus1=p6ulv11330.1 kV=0.12 kW=1.133808317974872 kvar=0.2267616635949744 Phases=1 Vminpu=0.0 Vmaxpu=1.2 model=1
New Load.motor_load_p6ulv11333_1 conn=wye bus1=p6ulv11333.1 kV=0.12 kW=1.0560276129458717 kvar=0.21120552258917435 Phases=1 Vminpu=0.0 Vmaxpu=1.2 model=1
New Load.motor_load_p6ulv11335_1 conn=wye bus1=p6ulv11335.1 kV=0.12 kW=1.0638883500765224 kvar=0.21277767001530448 Phases=1 Vminpu=0.0 Vmaxpu=1.2 model=1
New Load.motor_load_p6ulv11336_2 conn=wye bus1=p6ulv11336.2 kV=0.12 kW=1.1298449796943095 kvar=0.2259689959388619 Phases=1 Vminpu=0.0 Vmaxpu=1.2 model=1
New Load.motor_load_p6ulv11337_2 conn=wye bus1=p6ulv11337.2 kV=0.12 kW=1.245272349125813 kvar=0.24905446982516263 Phases=1 Vminpu=0.0 Vmaxpu=1.2 model=1
New Load.motor_load_p6ulv13840_2 conn=wye bus1=p6ulv13840.2 kV=0.12 kW=1.1070290478870803 kvar=0.22140580957741607 Phases=1 Vminpu=0.0 Vmaxpu=1.2 model=1
New Load.motor_load_p6ulv13843_2 conn=wye bus1=p6ulv13843.2 kV=0.12 kW=1.2218397724705206 kvar=0.24436795449410412 Phases=1 Vminpu=0.0 Vmaxpu=1.2 model=1
New Load.motor_load_p6ulv13844_1 conn=wye bus1=p6ulv13844.1 kV=0.12 kW=1.2567047928610215 kvar=0.25134095857220434 Phases=1 Vminpu=0.0 Vmaxpu=1.2 model=1
New Load.motor_load_p6ulv13847_1 conn=wye bus1=p6ulv13847.1 kV=0.12 kW=1.077101296709466 kvar=0.2154202593418932 Phases=1 Vminpu=0.0 Vmaxpu=1.2 model=1
New Load.motor_load_p6ulv13943_2 conn=wye bus1=p6ulv13943.2 kV=0.12 kW=1.160276587452073 kvar=0.23205531749041464 Phases=1 Vminpu=0.0 Vmaxpu=1.2 model=1
New Load.motor_load_p6ulv13944_1 conn=wye bus1=p6ulv13944.1 kV=0.12 kW=1.055445295034055 kvar=0.211089059006811 Phases=1 Vminpu=0.0 Vmaxpu=1.2 model=1
New Load.motor_load_p6ulv13948_2 conn=wye bus1=p6ulv13948.2 kV=0.12 kW=1.1517882226599834 kvar=0.2303576445319967 Phases=1 Vminpu=0.0 Vmaxpu=1.2 model=1
New Load.motor_load_p6ulv13952_1 conn=wye bus1=p6ulv13952.1 kV=0.12 kW=1.2444088987252888 kvar=0.24888177974505776 Phases=1 Vminpu=0.0 Vmaxpu=1.2 model=1
New Load.motor_load_p6ulv13953_2 conn=wye bus1=p6ulv13953.2 kV=0.12 kW=1.2576257434306601 kvar=0.251525148686132 Phases=1 Vminpu=0.0 Vmaxpu=1.2 model=1
New Load.motor_load_p6ulv13956_1 conn=wye bus1=p6ulv13956.1 kV=0.12 kW=1.0861863307514978 kvar=0.2172372661502996 Phases=1 Vminpu=0.0 Vmaxpu=1.2 model=1
New Load.motor_load_p6ulv13960_1 conn=wye bus1=p6ulv13960.1 kV=0.12 kW=1.1727310501149861 kvar=0.23454621002299725 Phases=1 Vminpu=0.0 Vmaxpu=1.2 model=1
New Load.motor_load_p6ulv13963_2 conn=wye bus1=p6ulv13963.2 kV=0.12 kW=1.1630244807684469 kvar=0.2326048961536894 Phases=1 Vminpu=0.0 Vmaxpu=1.2 model=1
New Load.motor_load_p6ulv13966_2 conn=wye bus1=p6ulv13966.2 kV=0.12 kW=1.1657861523231194 kvar=0.2331572304646239 Phases=1 Vminpu=0.0 Vmaxpu=1.2 model=1
New Load.motor_load_p6ulv13967_1 conn=wye bus1=p6ulv13967.1 kV=0.12 kW=1.2479827964233114 kvar=0.2495965592846623 Phases=1 Vminpu=0.0 Vmaxpu=1.2 model=1
New Load.motor_load_p6ulv13968_1 conn=wye bus1=p6ulv13968.1 kV=0.12 kW=1.1365704451628043 kvar=0.22731408903256087 Phases=1 Vminpu=0.0 Vmaxpu=1.2 model=1
New Load.motor_load_p6ulv13970_1 conn=wye bus1=p6ulv13970.1 kV=0.12 kW=1.204157483093994 kvar=0.24083149661879882 Phases=1 Vminpu=0.0 Vmaxpu=1.2 model=1
New Load.motor_load_p6ulv13973_2 conn=wye bus1=p6ulv13973.2 kV=0.12 kW=1.1800408345778384 kvar=0.2360081669155677 Phases=1 Vminpu=0.0 Vmaxpu=1.2 model=1
New Load.motor_load_p6ulv13976_1 conn=wye bus1=p6ulv13976.1 kV=0.12 kW=1.1012793230141356 kvar=0.22025586460282712 Phases=1 Vminpu=0.0 Vmaxpu=1.2 model=1
New Load.motor_load_p6ulv13976_2 conn=wye bus1=p6ulv13976.2 kV=0.12 kW=1.19164157364734 kvar=0.23832831472946803 Phases=1 Vminpu=0.0 Vmaxpu=1.2 model=1
New Load.motor_load_p6ulv13977_1 conn=wye bus1=p6ulv13977.1 kV=0.12 kW=1.21934194777219 kvar=0.24386838955443801 Phases=1 Vminpu=0.0 Vmaxpu=1.2 model=1
New Load.motor_load_p6ulv13978_2 conn=wye bus1=p6ulv13978.2 kV=0.12 kW=1.2376415340325224 kvar=0.2475283068065045 Phases=1 Vminpu=0.0 Vmaxpu=1.2 model=1
New Load.motor_load_p6ulv13979_2 conn=wye bus1=p6ulv13979.2 kV=0.12 kW=1.1801598715621124 kvar=0.2360319743124225 Phases=1 Vminpu=0.0 Vmaxpu=1.2 model=1
New Load.motor_load_p6ulv13983_1 conn=wye bus1=p6ulv13983.1 kV=0.12 kW=1.1844416069503365 kvar=0.23688832139006732 Phases=1 Vminpu=0.0 Vmaxpu=1.2 model=1
New Load.motor_load_p6ulv13984_1 conn=wye bus1=p6ulv13984.1 kV=0.12 kW=1.208381864148395 kvar=0.24167637282967902 Phases=1 Vminpu=0.0 Vmaxpu=1.2 model=1
New Load.motor_load_p6ulv13984_2 conn=wye bus1=p6ulv13984.2 kV=0.12 kW=1.0523887216014158 kvar=0.21047774432028318 Phases=1 Vminpu=0.0 Vmaxpu=1.2 model=1
New Load.motor_load_p6ulv13985_2 conn=wye bus1=p6ulv13985.2 kV=0.12 kW=1.200319051040954 kvar=0.24006381020819081 Phases=1 Vminpu=0.0 Vmaxpu=1.2 model=1
New Load.motor_load_p6ulv13986_2 conn=wye bus1=p6ulv13986.2 kV=0.12 kW=1.0870564132840896 kvar=0.21741128265681794 Phases=1 Vminpu=0.0 Vmaxpu=1.2 model=1
New Load.motor_load_p6ulv13987_1 conn=wye bus1=p6ulv13987.1 kV=0.12 kW=1.0687680942024655 kvar=0.21375361884049313 Phases=1 Vminpu=0.0 Vmaxpu=1.2 model=1
New Load.motor_load_p6ulv13988_1 conn=wye bus1=p6ulv13988.1 kV=0.12 kW=1.20093828081745 kvar=0.24018765616349003 Phases=1 Vminpu=0.0 Vmaxpu=1.2 model=1
New Load.motor_load_p6ulv13989_2 conn=wye bus1=p6ulv13989.2 kV=0.12 kW=1.168822585984256 kvar=0.2337645171968512 Phases=1 Vminpu=0.0 Vmaxpu=1.2 model=1
New Load.motor_load_p6ulv14049_1 conn=wye bus1=p6ulv14049.1 kV=0.12 kW=1.1786728728468232 kvar=0.23573457456936464 Phases=1 Vminpu=0.0 Vmaxpu=1.2 model=1
New Load.motor_load_p6ulv14052_1 conn=wye bus1=p6ulv14052.1 kV=0.12 kW=1.2172618588186406 kvar=0.24345237176372814 Phases=1 Vminpu=0.0 Vmaxpu=1.2 model=1
New Load.motor_load_p6ulv14054_1 conn=wye bus1=p6ulv14054.1 kV=0.12 kW=1.1515494586640296 kvar=0.23030989173280592 Phases=1 Vminpu=0.0 Vmaxpu=1.2 model=1
New Load.motor_load_p6ulv14054_2 conn=wye bus1=p6ulv14054.2 kV=0.12 kW=1.2242338149179977 kvar=0.24484676298359953 Phases=1 Vminpu=0.0 Vmaxpu=1.2 model=1
New Load.motor_load_p6ulv14055_1 conn=wye bus1=p6ulv14055.1 kV=0.12 kW=1.2092603870114669 kvar=0.2418520774022934 Phases=1 Vminpu=0.0 Vmaxpu=1.2 model=1
New Load.motor_load_p6ulv14055_2 conn=wye bus1=p6ulv14055.2 kV=0.12 kW=1.2606533435043605 kvar=0.25213066870087214 Phases=1 Vminpu=0.0 Vmaxpu=1.2 model=1
New Load.motor_load_p6ulv14058_1 conn=wye bus1=p6ulv14058.1 kV=0.12 kW=1.139571627464607 kvar=0.22791432549292143 Phases=1 Vminpu=0.0 Vmaxpu=1.2 model=1
New Load.motor_load_p6ulv14059_1 conn=wye bus1=p6ulv14059.1 kV=0.12 kW=1.1216750192622646 kvar=0.22433500385245295 Phases=1 Vminpu=0.0 Vmaxpu=1.2 model=1
New Load.motor_load_p6ulv14059_2 conn=wye bus1=p6ulv14059.2 kV=0.12 kW=1.1207393518602313 kvar=0.22414787037204628 Phases=1 Vminpu=0.0 Vmaxpu=1.2 model=1
New Load.motor_load_p6ulv14061_2 conn=wye bus1=p6ulv14061.2 kV=0.12 kW=1.1124489389614287 kvar=0.22248978779228576 Phases=1 Vminpu=0.0 Vmaxpu=1.2 model=1
New Load.motor_load_p6ulv14062_1 conn=wye bus1=p6ulv14062.1 kV=0.12 kW=1.208367997454203 kvar=0.2416735994908406 Phases=1 Vminpu=0.0 Vmaxpu=1.2 model=1
New Load.motor_load_p6ulv14064_1 conn=wye bus1=p6ulv14064.1 kV=0.12 kW=1.2391771628133457 kvar=0.24783543256266916 Phases=1 Vminpu=0.0 Vmaxpu=1.2 model=1
New Load.motor_load_p6ulv14066_2 conn=wye bus1=p6ulv14066.2 kV=0.12 kW=1.1634689072976325 kvar=0.23269378145952652 Phases=1 Vminpu=0.0 Vmaxpu=1.2 model=1
New Load.motor_load_p6ulv14068_2 conn=wye bus1=p6ulv14068.2 kV=0.12 kW=1.0956219220629815 kvar=0.2191243844125963 Phases=1 Vminpu=0.0 Vmaxpu=1.2 model=1
New Load.motor_load_p6ulv14069_1 conn=wye bus1=p6ulv14069.1 kV=0.12 kW=1.1246684116919963 kvar=0.22493368233839928 Phases=1 Vminpu=0.0 Vmaxpu=1.2 model=1
New Load.motor_load_p6ulv14072_2 conn=wye bus1=p6ulv14072.2 kV=0.12 kW=1.107615429185158 kvar=0.22152308583703162 Phases=1 Vminpu=0.0 Vmaxpu=1.2 model=1
New Load.motor_load_p6ulv14073_1 conn=wye bus1=p6ulv14073.1 kV=0.12 kW=1.0533260144019354 kvar=0.2106652028803871 Phases=1 Vminpu=0.0 Vmaxpu=1.2 model=1
New Load.motor_load_p6ulv14073_2 conn=wye bus1=p6ulv14073.2 kV=0.12 kW=1.2011765323152497 kvar=0.24023530646304994 Phases=1 Vminpu=0.0 Vmaxpu=1.2 model=1
New Load.motor_load_p6ulv14075_2 conn=wye bus1=p6ulv14075.2 kV=0.12 kW=1.0701286949701743 kvar=0.21402573899403488 Phases=1 Vminpu=0.0 Vmaxpu=1.2 model=1
New Load.motor_load_p6ulv14084_1 conn=wye bus1=p6ulv14084.1 kV=0.12 kW=1.128940410161496 kvar=0.2257880820322992 Phases=1 Vminpu=0.0 Vmaxpu=1.2 model=1
New Load.motor_load_p6ulv14085_1 conn=wye bus1=p6ulv14085.1 kV=0.12 kW=1.200839797230423 kvar=0.2401679594460846 Phases=1 Vminpu=0.0 Vmaxpu=1.2 model=1
New Load.motor_load_p6ulv14087_1 conn=wye bus1=p6ulv14087.1 kV=0.12 kW=1.1168493845471126 kvar=0.22336987690942253 Phases=1 Vminpu=0.0 Vmaxpu=1.2 model=1
New Load.motor_load_p6ulv14102_1 conn=wye bus1=p6ulv14102.1 kV=0.12 kW=1.1506748901100927 kvar=0.23013497802201854 Phases=1 Vminpu=0.0 Vmaxpu=1.2 model=1
New Load.motor_load_p6ulv14103_2 conn=wye bus1=p6ulv14103.2 kV=0.12 kW=1.1675176854215852 kvar=0.23350353708431704 Phases=1 Vminpu=0.0 Vmaxpu=1.2 model=1
New Load.motor_load_p6ulv14106_1 conn=wye bus1=p6ulv14106.1 kV=0.12 kW=1.1685194823582414 kvar=0.2337038964716483 Phases=1 Vminpu=0.0 Vmaxpu=1.2 model=1
New Load.motor_load_p6ulv14106_2 conn=wye bus1=p6ulv14106.2 kV=0.12 kW=1.1506665606646336 kvar=0.23013331213292673 Phases=1 Vminpu=0.0 Vmaxpu=1.2 model=1
New Load.motor_load_p6ulv14107_1 conn=wye bus1=p6ulv14107.1 kV=0.12 kW=1.2623888286254512 kvar=0.25247776572509023 Phases=1 Vminpu=0.0 Vmaxpu=1.2 model=1
New Load.motor_load_p6ulv14108_2 conn=wye bus1=p6ulv14108.2 kV=0.12 kW=1.2251052155515616 kvar=0.24502104311031234 Phases=1 Vminpu=0.0 Vmaxpu=1.2 model=1
New Load.motor_load_p6ulv14112_1 conn=wye bus1=p6ulv14112.1 kV=0.12 kW=1.224188106554353 kvar=0.2448376213108706 Phases=1 Vminpu=0.0 Vmaxpu=1.2 model=1
New Load.motor_load_p6ulv14112_2 conn=wye bus1=p6ulv14112.2 kV=0.12 kW=1.093923944860263 kvar=0.21878478897205259 Phases=1 Vminpu=0.0 Vmaxpu=1.2 model=1
New Load.motor_load_p6ulv14113_2 conn=wye bus1=p6ulv14113.2 kV=0.12 kW=1.2384568431364875 kvar=0.24769136862729751 Phases=1 Vminpu=0.0 Vmaxpu=1.2 model=1
New Load.motor_load_p6ulv14114_1 conn=wye bus1=p6ulv14114.1 kV=0.12 kW=1.1477300897004385 kvar=0.22954601794008772 Phases=1 Vminpu=0.0 Vmaxpu=1.2 model=1
New Load.motor_load_p6ulv14115_2 conn=wye bus1=p6ulv14115.2 kV=0.12 kW=1.142139095920605 kvar=0.22842781918412103 Phases=1 Vminpu=0.0 Vmaxpu=1.2 model=1
New Load.motor_load_p6ulv14116_2 conn=wye bus1=p6ulv14116.2 kV=0.12 kW=1.2494229389844178 kvar=0.24988458779688358 Phases=1 Vminpu=0.0 Vmaxpu=1.2 model=1
New Load.motor_load_p6ulv14118_2 conn=wye bus1=p6ulv14118.2 kV=0.12 kW=1.1227949315489547 kvar=0.22455898630979096 Phases=1 Vminpu=0.0 Vmaxpu=1.2 model=1
New Load.motor_load_p6ulv14119_2 conn=wye bus1=p6ulv14119.2 kV=0.12 kW=1.2348979703511438 kvar=0.24697959407022876 Phases=1 Vminpu=0.0 Vmaxpu=1.2 model=1
New Load.motor_load_p6ulv14120_2 conn=wye bus1=p6ulv14120.2 kV=0.12 kW=1.114993690629674 kvar=0.22299873812593482 Phases=1 Vminpu=0.0 Vmaxpu=1.2 model=1
New Load.motor_load_p6ulv14122_2 conn=wye bus1=p6ulv14122.2 kV=0.12 kW=1.183883489238213 kvar=0.23677669784764263 Phases=1 Vminpu=0.0 Vmaxpu=1.2 model=1
New Load.motor_load_p6ulv14127_1 conn=wye bus1=p6ulv14127.1 kV=0.12 kW=1.1224161009271942 kvar=0.22448322018543887 Phases=1 Vminpu=0.0 Vmaxpu=1.2 model=1
New Load.motor_load_p6ulv14131_1 conn=wye bus1=p6ulv14131.1 kV=0.12 kW=1.0615626947811378 kvar=0.2123125389562276 Phases=1 Vminpu=0.0 Vmaxpu=1.2 model=1