New Load.load_p1rlv3261 conn=wye bus1=p1rlv3261.1.2.3 kV=0.48 Vminpu=0.8 Vmaxpu=1.2 model=1 kW=42.8504 kvar=8.70114483163134 Phases=3

New Load.load_p1rlv3262_1 conn=wye bus1=p1rlv3262.1 kV=0.12 Vminpu=0.8 Vmaxpu=1.2 model=1 kW=0.5300050000000001 kvar=0.11009305635610007 Phases=1

New Load.load_p1rlv3262_2 conn=wye bus1=p1rlv3262.2 kV=0.12 Vminpu=0.8 Vmaxpu=1.2 model=1 kW=0.5300050000000001 kvar=0.11009305635610007 Phases=1

New Load.load_p1rlv3263_1 conn=wye bus1=p1rlv3263.1 kV=0.12 Vminpu=0.8 Vmaxpu=1.2 model=1 kW=3.09503 kvar=0.6300902535304821 Phases=1

New Load.load_p1rlv3263_2 conn=wye bus1=p1rlv3263.2 kV=0.12 Vminpu=0.8 Vmaxpu=1.2 model=1 kW=3.09503 kvar=0.6300902535304821 Phases=1

New Load.load_p1rlv3264 conn=wye bus1=p1rlv3264.1.2.3 kV=0.48 Vminpu=0.8 Vmaxpu=1.2 model=1 kW=74.0507 kvar=15.036635961010463 Phases=3

New Load.load_p1rlv3265 conn=wye bus1=p1rlv3265.1.2.3 kV=0.48 Vminpu=0.8 Vmaxpu=1.2 model=1 kW=26.320299999999996 kvar=5.344564865485182 Phases=3

New Load.load_p1rlv3266 conn=wye bus1=p1rlv3266.1.2.3 kV=0.48 Vminpu=0.8 Vmaxpu=1.2 model=1 kW=23.7402 kvar=4.820653215183389 Phases=3

New Load.load_p1rlv3267_1 conn=wye bus1=p1rlv3267.1 kV=0.12 Vminpu=0.8 Vmaxpu=1.2 model=1 kW=6.30005 kvar=1.2792797149272586 Phases=1

New Load.load_p1rlv3267_2 conn=wye bus1=p1rlv3267.2 kV=0.12 Vminpu=0.8 Vmaxpu=1.2 model=1 kW=6.30005 kvar=1.2792797149272586 Phases=1

New Load.load_p1rlv3268_1 conn=wye bus1=p1rlv3268.1 kV=0.12 Vminpu=0.8 Vmaxpu=1.2 model=1 kW=5.215050000000001 kvar=1.058961068139364 Phases=1

New Load.load_p1rlv3268_2 conn=wye bus1=p1rlv3268.2 kV=0.12 Vminpu=0.8 Vmaxpu=1.2 model=1 kW=5.215050000000001 kvar=1.058961068139364 Phases=1

New Load.load_p1rlv3269 conn=wye bus1=p1rlv3269.1.2.3 kV=0.48 Vminpu=0.8 Vmaxpu=1.2 model=1 kW=39.66040000000001 kvar=8.053387704208866 Phases=3

New Load.load_p1rlv3270_1 conn=wye bus1=p1rlv3270.1 kV=0.12 Vminpu=0.8 Vmaxpu=1.2 model=1 kW=0.620005 kvar=0.1249208112822805 Phases=1

New Load.load_p1rlv3270_2 conn=wye bus1=p1rlv3270.2 kV=0.12 Vminpu=0.8 Vmaxpu=1.2 model=1 kW=0.620005 kvar=0.1249208112822805 Phases=1

New Load.load_p1rlv3271_1 conn=wye bus1=p1rlv3271.1 kV=0.12 Vminpu=0.8 Vmaxpu=1.2 model=1 kW=2.1000200000000007 kvar=0.4253271849977283 Phases=1

New Load.load_p1rlv3271_2 conn=wye bus1=p1rlv3271.2 kV=0.12 Vminpu=0.8 Vmaxpu=1.2 model=1 kW=2.1000200000000007 kvar=0.4253271849977283 Phases=1

New Load.load_p1rlv3272_1 conn=wye bus1=p1rlv3272.1 kV=0.12 Vminpu=0.8 Vmaxpu=1.2 model=1 kW=3.720035 kvar=0.7553853246116182 Phases=1

New Load.load_p1rlv3272_2 conn=wye bus1=p1rlv3272.2 kV=0.12 Vminpu=0.8 Vmaxpu=1.2 model=1 kW=3.720035 kvar=0.7553853246116182 Phases=1

New Load.load_p1rlv3273_1 conn=wye bus1=p1rlv3273.1 kV=0.12 Vminpu=0.8 Vmaxpu=1.2 model=1 kW=9.0951 kvar=1.8468388243323326 Phases=1

New Load.load_p1rlv3273_2 conn=wye bus1=p1rlv3273.2 kV=0.12 Vminpu=0.8 Vmaxpu=1.2 model=1 kW=9.0951 kvar=1.8468388243323326 Phases=1

New Load.load_p1rlv3274_1 conn=wye bus1=p1rlv3274.1 kV=0.12 Vminpu=0.8 Vmaxpu=1.2 model=1 kW=7.6001 kvar=1.5432661266844963 Phases=1

New Load.load_p1rlv3274_2 conn=wye bus1=p1rlv3274.2 kV=0.12 Vminpu=0.8 Vmaxpu=1.2 model=1 kW=7.6001 kvar=1.5432661266844963 Phases=1

New Load.load_p1rlv3275_1 conn=wye bus1=p1rlv3275.1 kV=0.12 Vminpu=0.8 Vmaxpu=1.2 model=1 kW=7.7701 kvar=1.5818471158461143 Phases=1

New Load.load_p1rlv3275_2 conn=wye bus1=p1rlv3275.2 kV=0.12 Vminpu=0.8 Vmaxpu=1.2 model=1 kW=7.7701 kvar=1.5818471158461143 Phases=1

New Load.load_p1rlv3276_1 conn=wye bus1=p1rlv3276.1 kV=0.12 Vminpu=0.8 Vmaxpu=1.2 model=1 kW=8.2051 kvar=1.6661166163680687 Phases=1

New Load.load_p1rlv3276_2 conn=wye bus1=p1rlv3276.2 kV=0.12 Vminpu=0.8 Vmaxpu=1.2 model=1 kW=8.2051 kvar=1.6661166163680687 Phases=1

New Load.load_p1rlv3277_1 conn=wye bus1=p1rlv3277.1 kV=0.12 Vminpu=0.8 Vmaxpu=1.2 model=1 kW=2.21002 kvar=0.4499187607575488 Phases=1

New Load.load_p1rlv3277_2 conn=wye bus1=p1rlv3277.2 kV=0.12 Vminpu=0.8 Vmaxpu=1.2 model=1 kW=2.21002 kvar=0.4499187607575488 Phases=1

New Load.load_p1rlv3278_1 conn=wye bus1=p1rlv3278.1 kV=0.12 Vminpu=0.8 Vmaxpu=1.2 model=1 kW=2.98003 kvar=0.6051209004491518 Phases=1

New Load.load_p1rlv3278_2 conn=wye bus1=p1rlv3278.2 kV=0.12 Vminpu=0.8 Vmaxpu=1.2 model=1 kW=2.98003 kvar=0.6051209004491518 Phases=1

New Load.load_p1rlv3279_1 conn=wye bus1=p1rlv3279.1 kV=0.12 Vminpu=0.8 Vmaxpu=1.2 model=1 kW=0.685005 kvar=0.14016782808726178 Phases=1

New Load.load_p1rlv3279_2 conn=wye bus1=p1rlv3279.2 kV=0.12 Vminpu=0.8 Vmaxpu=1.2 model=1 kW=0.685005 kvar=0.14016782808726178 Phases=1

New Load.load_p1rlv3280_1 conn=wye bus1=p1rlv3280.1 kV=0.12 Vminpu=0.8 Vmaxpu=1.2 model=1 kW=0.565005 kvar=0.11502445653062815 Phases=1

New Load.load_p1rlv3280_2 conn=wye bus1=p1rlv3280.2 kV=0.12 Vminpu=0.8 Vmaxpu=1.2 model=1 kW=0.565005 kvar=0.11502445653062815 Phases=1

New Load.load_p1rlv3281_1 conn=wye bus1=p1rlv3281.1 kV=0.12 Vminpu=0.8 Vmaxpu=1.2 model=1 kW=0.190002 kvar=0.059988602353610775 Phases=1

New Load.load_p1rlv3281_2 conn=wye bus1=p1rlv3281.2 kV=0.12 Vminpu=0.8 Vmaxpu=1.2 model=1 kW=0.190002 kvar=0.059988602353610775 Phases=1

New Load.load_p1rlv4158_1 conn=wye bus1=p1rlv4158.1 kV=0.12 Vminpu=0.8 Vmaxpu=1.2 model=1 kW=4.385045 kvar=1.4397379434942448 Phases=1

New Load.load_p1rlv4158_2 conn=wye bus1=p1rlv4158.2 kV=0.12 Vminpu=0.8 Vmaxpu=1.2 model=1 kW=4.385045 kvar=1.4397379434942448 Phases=1

New Load.load_p1rlv4159_1 conn=wye bus1=p1rlv4159.1 kV=0.12 Vminpu=0.8 Vmaxpu=1.2 model=1 kW=0.730005 kvar=0.23994104020109597 Phases=1

New Load.load_p1rlv4159_2 conn=wye bus1=p1rlv4159.2 kV=0.12 Vminpu=0.8 Vmaxpu=1.2 model=1 kW=0.730005 kvar=0.23994104020109597 Phases=1

New Load.load_p1rlv4160_1 conn=wye bus1=p1rlv4160.1 kV=0.12 Vminpu=0.8 Vmaxpu=1.2 model=1 kW=0.375004 kvar=0.12497932499157037 Phases=1

New Load.load_p1rlv4160_2 conn=wye bus1=p1rlv4160.2 kV=0.12 Vminpu=0.8 Vmaxpu=1.2 model=1 kW=0.375004 kvar=0.12497932499157037 Phases=1

New Load.load_p1rlv4161_1 conn=wye bus1=p1rlv4161.1 kV=0.12 Vminpu=0.8 Vmaxpu=1.2 model=1 kW=0.645005 kvar=0.20993579026707054 Phases=1

New Load.load_p1rlv4161_2 conn=wye bus1=p1rlv4161.2 kV=0.12 Vminpu=0.8 Vmaxpu=1.2 model=1 kW=0.645005 kvar=0.20993579026707054 Phases=1

New Load.load_p1rlv6012_1 conn=wye bus1=p1rlv6012.1 kV=0.12 Vminpu=0.8 Vmaxpu=1.2 model=1 kW=0.405004 kvar=0.08009572620981252 Phases=1

New Load.load_p1rlv6012_2 conn=wye bus1=p1rlv6012.2 kV=0.12 Vminpu=0.8 Vmaxpu=1.2 model=1 kW=0.405004 kvar=0.08009572620981252 Phases=1

New Load.load_p1rlv6013_1 conn=wye bus1=p1rlv6013.1 kV=0.12 Vminpu=0.8 Vmaxpu=1.2 model=1 kW=0.81501 kvar=0.1650679084223 Phases=1

New Load.load_p1rlv6013_2 conn=wye bus1=p1rlv6013.2 kV=0.12 Vminpu=0.8 Vmaxpu=1.2 model=1 kW=0.81501 kvar=0.1650679084223 Phases=1

New Load.load_p1rlv6014_1 conn=wye bus1=p1rlv6014.1 kV=0.12 Vminpu=0.8 Vmaxpu=1.2 model=1 kW=0.3650035 kvar=0.0750666909838315 Phases=1

New Load.load_p1rlv6014_2 conn=wye bus1=p1rlv6014.2 kV=0.12 Vminpu=0.8 Vmaxpu=1.2 model=1 kW=0.3650035 kvar=0.0750666909838315 Phases=1

New Load.load_p1rlv6015_1 conn=wye bus1=p1rlv6015.1 kV=0.12 Vminpu=0.8 Vmaxpu=1.2 model=1 kW=0.610005 kvar=0.12513777380057528 Phases=1

New Load.load_p1rlv6015_2 conn=wye bus1=p1rlv6015.2 kV=0.12 Vminpu=0.8 Vmaxpu=1.2 model=1 kW=0.610005 kvar=0.12513777380057528 Phases=1

New Load.load_p1rlv6016_1 conn=wye bus1=p1rlv6016.1 kV=0.12 Vminpu=0.8 Vmaxpu=1.2 model=1 kW=0.4300045 kvar=0.0850399568917525 Phases=1

New Load.load_p1rlv6016_2 conn=wye bus1=p1rlv6016.2 kV=0.12 Vminpu=0.8 Vmaxpu=1.2 model=1 kW=0.4300045 kvar=0.0850399568917525 Phases=1

New Load.load_p1rlv6029_1 conn=wye bus1=p1rlv6029.1 kV=0.12 Vminpu=0.8 Vmaxpu=1.2 model=1 kW=0.77001 kvar=0.15514435189307957 Phases=1

New Load.load_p1rlv6029_2 conn=wye bus1=p1rlv6029.2 kV=0.12 Vminpu=0.8 Vmaxpu=1.2 model=1 kW=0.77001 kvar=0.15514435189307957 Phases=1

New Load.load_p1rlv6030_1 conn=wye bus1=p1rlv6030.1 kV=0.12 Vminpu=0.8 Vmaxpu=1.2 model=1 kW=0.96001 kvar=0.19493834479525043 Phases=1

New Load.load_p1rlv6030_2 conn=wye bus1=p1rlv6030.2 kV=0.12 Vminpu=0.8 Vmaxpu=1.2 model=1 kW=0.96001 kvar=0.19493834479525043 Phases=1

New Load.load_p1rlv6031_1 conn=wye bus1=p1rlv6031.1 kV=0.12 Vminpu=0.8 Vmaxpu=1.2 model=1 kW=0.90501 kvar=0.18518592725199493 Phases=1

New Load.load_p1rlv6031_2 conn=wye bus1=p1rlv6031.2 kV=0.12 Vminpu=0.8 Vmaxpu=1.2 model=1 kW=0.90501 kvar=0.18518592725199493 Phases=1

New Load.load_p1rlv6033_1 conn=wye bus1=p1rlv6033.1 kV=0.12 Vminpu=0.8 Vmaxpu=1.2 model=1 kW=1.03501 kvar=0.2101677443428008 Phases=1

New Load.load_p1rlv6033_2 conn=wye bus1=p1rlv6033.2 kV=0.12 Vminpu=0.8 Vmaxpu=1.2 model=1 kW=1.03501 kvar=0.2101677443428008 Phases=1

New Load.load_p1rlv6034_1 conn=wye bus1=p1rlv6034.1 kV=0.12 Vminpu=0.8 Vmaxpu=1.2 model=1 kW=0.715005 kvar=0.14518795764661624 Phases=1

New Load.load_p1rlv6034_2 conn=wye bus1=p1rlv6034.2 kV=0.12 Vminpu=0.8 Vmaxpu=1.2 model=1 kW=0.715005 kvar=0.14518795764661624 Phases=1

New Load.load_p1rlv6035_1 conn=wye bus1=p1rlv6035.1 kV=0.12 Vminpu=0.8 Vmaxpu=1.2 model=1 kW=0.85001 kvar=0.1699148742584558 Phases=1

New Load.load_p1rlv6035_2 conn=wye bus1=p1rlv6035.2 kV=0.12 Vminpu=0.8 Vmaxpu=1.2 model=1 kW=0.85001 kvar=0.1699148742584558 Phases=1

New Load.load_p1rlv6036_1 conn=wye bus1=p1rlv6036.1 kV=0.12 Vminpu=0.8 Vmaxpu=1.2 model=1 kW=0.645005 kvar=0.12995790014778485 Phases=1

New Load.load_p1rlv6036_2 conn=wye bus1=p1rlv6036.2 kV=0.12 Vminpu=0.8 Vmaxpu=1.2 model=1 kW=0.645005 kvar=0.12995790014778485 Phases=1

New Load.load_p1rlv6037_1 conn=wye bus1=p1rlv6037.1 kV=0.12 Vminpu=0.8 Vmaxpu=1.2 model=1 kW=1.88002 kvar=0.37978245228042407 Phases=1

New Load.load_p1rlv6037_2 conn=wye bus1=p1rlv6037.2 kV=0.12 Vminpu=0.8 Vmaxpu=1.2 model=1 kW=1.88002 kvar=0.37978245228042407 Phases=1

New Load.load_p1rlv6038_1 conn=wye bus1=p1rlv6038.1 kV=0.12 Vminpu=0.8 Vmaxpu=1.2 model=1 kW=0.545005 kvar=0.11009634759475566 Phases=1

New Load.load_p1rlv6038_2 conn=wye bus1=p1rlv6038.2 kV=0.12 Vminpu=0.8 Vmaxpu=1.2 model=1 kW=0.545005 kvar=0.11009634759475566 Phases=1

New Load.load_p1rlv6039_1 conn=wye bus1=p1rlv6039.1 kV=0.12 Vminpu=0.8 Vmaxpu=1.2 model=1 kW=0.4350045 kvar=0.0899122736897623 Phases=1

New Load.load_p1rlv6039_2 conn=wye bus1=p1rlv6039.2 kV=0.12 Vminpu=0.8 Vmaxpu=1.2 model=1 kW=0.4350045 kvar=0.0899122736897623 Phases=1

New Load.load_p1rlv6051_1 conn=wye bus1=p1rlv6051.1 kV=0.12 Vminpu=0.8 Vmaxpu=1.2 model=1 kW=0.4300045 kvar=0.0850399568917525 Phases=1

New Load.load_p1rlv6051_2 conn=wye bus1=p1rlv6051.2 kV=0.12 Vminpu=0.8 Vmaxpu=1.2 model=1 kW=0.4300045 kvar=0.0850399568917525 Phases=1

New Load.load_p1rlv6052_1 conn=wye bus1=p1rlv6052.1 kV=0.12 Vminpu=0.8 Vmaxpu=1.2 model=1 kW=0.4350045 kvar=0.0899122736897623 Phases=1

New Load.load_p1rlv6052_2 conn=wye bus1=p1rlv6052.2 kV=0.12 Vminpu=0.8 Vmaxpu=1.2 model=1 kW=0.4350045 kvar=0.0899122736897623 Phases=1

New Load.load_p1rlv6053_1 conn=wye bus1=p1rlv6053.1 kV=0.12 Vminpu=0.8 Vmaxpu=1.2 model=1 kW=0.520005 kvar=0.10504610275320578 Phases=1

New Load.load_p1rlv6053_2 conn=wye bus1=p1rlv6053.2 kV=0.12 Vminpu=0.8 Vmaxpu=1.2 model=1 kW=0.520005 kvar=0.10504610275320578 Phases=1

New Load.load_p1rlv6054_1 conn=wye bus1=p1rlv6054.1 kV=0.12 Vminpu=0.8 Vmaxpu=1.2 model=1 kW=0.88001 kvar=0.18007035042820305 Phases=1

New Load.load_p1rlv6054_2 conn=wye bus1=p1rlv6054.2 kV=0.12 Vminpu=0.8 Vmaxpu=1.2 model=1 kW=0.88001 kvar=0.18007035042820305 Phases=1

New Load.load_p1rlv6055_1 conn=wye bus1=p1rlv6055.1 kV=0.12 Vminpu=0.8 Vmaxpu=1.2 model=1 kW=0.545005 kvar=0.11009634759475566 Phases=1

New Load.load_p1rlv6055_2 conn=wye bus1=p1rlv6055.2 kV=0.12 Vminpu=0.8 Vmaxpu=1.2 model=1 kW=0.545005 kvar=0.11009634759475566 Phases=1

New Load.load_p1rlv6056_1 conn=wye bus1=p1rlv6056.1 kV=0.12 Vminpu=0.8 Vmaxpu=1.2 model=1 kW=0.4700045 kvar=0.09494551206520921 Phases=1

New Load.load_p1rlv6056_2 conn=wye bus1=p1rlv6056.2 kV=0.12 Vminpu=0.8 Vmaxpu=1.2 model=1 kW=0.4700045 kvar=0.09494551206520921 Phases=1

New Load.load_p1rlv6057_1 conn=wye bus1=p1rlv6057.1 kV=0.12 Vminpu=0.8 Vmaxpu=1.2 model=1 kW=1.97502 kvar=0.40001033176551326 Phases=1

New Load.load_p1rlv6057_2 conn=wye bus1=p1rlv6057.2 kV=0.12 Vminpu=0.8 Vmaxpu=1.2 model=1 kW=1.97502 kvar=0.40001033176551326 Phases=1

New Load.load_p1rlv6058_1 conn=wye bus1=p1rlv6058.1 kV=0.12 Vminpu=0.8 Vmaxpu=1.2 model=1 kW=1.11001 kvar=0.2248156820503273 Phases=1

New Load.load_p1rlv6058_2 conn=wye bus1=p1rlv6058.2 kV=0.12 Vminpu=0.8 Vmaxpu=1.2 model=1 kW=1.11001 kvar=0.2248156820503273 Phases=1

New Load.load_p1rlv6059_1 conn=wye bus1=p1rlv6059.1 kV=0.12 Vminpu=0.8 Vmaxpu=1.2 model=1 kW=1.05501 kvar=0.21478031501381048 Phases=1

New Load.load_p1rlv6059_2 conn=wye bus1=p1rlv6059.2 kV=0.12 Vminpu=0.8 Vmaxpu=1.2 model=1 kW=1.05501 kvar=0.21478031501381048 Phases=1

New Load.load_p1rlv6060_1 conn=wye bus1=p1rlv6060.1 kV=0.12 Vminpu=0.8 Vmaxpu=1.2 model=1 kW=0.420004 kvar=0.08506543699954562 Phases=1

New Load.load_p1rlv6060_2 conn=wye bus1=p1rlv6060.2 kV=0.12 Vminpu=0.8 Vmaxpu=1.2 model=1 kW=0.420004 kvar=0.08506543699954562 Phases=1

New Load.load_p1rlv6061_1 conn=wye bus1=p1rlv6061.1 kV=0.12 Vminpu=0.8 Vmaxpu=1.2 model=1 kW=0.570005 kvar=0.11514659243630554 Phases=1

New Load.load_p1rlv6061_2 conn=wye bus1=p1rlv6061.2 kV=0.12 Vminpu=0.8 Vmaxpu=1.2 model=1 kW=0.570005 kvar=0.11514659243630554 Phases=1

New Load.load_p1rlv6062_1 conn=wye bus1=p1rlv6062.1 kV=0.12 Vminpu=0.8 Vmaxpu=1.2 model=1 kW=0.92001 kvar=0.18488162081142773 Phases=1

New Load.load_p1rlv6062_2 conn=wye bus1=p1rlv6062.2 kV=0.12 Vminpu=0.8 Vmaxpu=1.2 model=1 kW=0.92001 kvar=0.18488162081142773 Phases=1

New Load.load_p1rlv6063_1 conn=wye bus1=p1rlv6063.1 kV=0.12 Vminpu=0.8 Vmaxpu=1.2 model=1 kW=0.645005 kvar=0.12995790014778485 Phases=1

New Load.load_p1rlv6063_2 conn=wye bus1=p1rlv6063.2 kV=0.12 Vminpu=0.8 Vmaxpu=1.2 model=1 kW=0.645005 kvar=0.12995790014778485 Phases=1

New Load.load_p1rlv6071_1 conn=wye bus1=p1rlv6071.1 kV=0.12 Vminpu=0.8 Vmaxpu=1.2 model=1 kW=1.01001 kvar=0.2050912778269507 Phases=1

New Load.load_p1rlv6071_2 conn=wye bus1=p1rlv6071.2 kV=0.12 Vminpu=0.8 Vmaxpu=1.2 model=1 kW=1.01001 kvar=0.2050912778269507 Phases=1

New Load.load_p1rlv6072_1 conn=wye bus1=p1rlv6072.1 kV=0.12 Vminpu=0.8 Vmaxpu=1.2 model=1 kW=0.590005 kvar=0.12011398921311008 Phases=1

New Load.load_p1rlv6072_2 conn=wye bus1=p1rlv6072.2 kV=0.12 Vminpu=0.8 Vmaxpu=1.2 model=1 kW=0.590005 kvar=0.12011398921311008 Phases=1

New Load.load_p1rlv6073_1 conn=wye bus1=p1rlv6073.1 kV=0.12 Vminpu=0.8 Vmaxpu=1.2 model=1 kW=0.85001 kvar=0.17481322234763946 Phases=1

New Load.load_p1rlv6073_2 conn=wye bus1=p1rlv6073.2 kV=0.12 Vminpu=0.8 Vmaxpu=1.2 model=1 kW=0.85001 kvar=0.17481322234763946 Phases=1

New Load.load_p1rlv6074_1 conn=wye bus1=p1rlv6074.1 kV=0.12 Vminpu=0.8 Vmaxpu=1.2 model=1 kW=1.04501 kvar=0.21000113320958477 Phases=1

New Load.load_p1rlv6074_2 conn=wye bus1=p1rlv6074.2 kV=0.12 Vminpu=0.8 Vmaxpu=1.2 model=1 kW=1.04501 kvar=0.21000113320958477 Phases=1

New Load.load_p1rlv6075_1 conn=wye bus1=p1rlv6075.1 kV=0.12 Vminpu=0.8 Vmaxpu=1.2 model=1 kW=0.4450045 kvar=0.08989526722365931 Phases=1

New Load.load_p1rlv6075_2 conn=wye bus1=p1rlv6075.2 kV=0.12 Vminpu=0.8 Vmaxpu=1.2 model=1 kW=0.4450045 kvar=0.08989526722365931 Phases=1

New Load.load_p1rlv6076_1 conn=wye bus1=p1rlv6076.1 kV=0.12 Vminpu=0.8 Vmaxpu=1.2 model=1 kW=0.645005 kvar=0.12995790014778485 Phases=1

New Load.load_p1rlv6076_2 conn=wye bus1=p1rlv6076.2 kV=0.12 Vminpu=0.8 Vmaxpu=1.2 model=1 kW=0.645005 kvar=0.12995790014778485 Phases=1

New Load.load_p1rlv6077_1 conn=wye bus1=p1rlv6077.1 kV=0.12 Vminpu=0.8 Vmaxpu=1.2 model=1 kW=0.4350045 kvar=0.0899122736897623 Phases=1

New Load.load_p1rlv6077_2 conn=wye bus1=p1rlv6077.2 kV=0.12 Vminpu=0.8 Vmaxpu=1.2 model=1 kW=0.4350045 kvar=0.0899122736897623 Phases=1

New Load.load_p1rlv6078_1 conn=wye bus1=p1rlv6078.1 kV=0.12 Vminpu=0.8 Vmaxpu=1.2 model=1 kW=0.83501 kvar=0.1699924274079695 Phases=1

New Load.load_p1rlv6078_2 conn=wye bus1=p1rlv6078.2 kV=0.12 Vminpu=0.8 Vmaxpu=1.2 model=1 kW=0.83501 kvar=0.1699924274079695 Phases=1

New Load.load_p1rlv6079_1 conn=wye bus1=p1rlv6079.1 kV=0.12 Vminpu=0.8 Vmaxpu=1.2 model=1 kW=0.620005 kvar=0.1249208112822805 Phases=1

New Load.load_p1rlv6079_2 conn=wye bus1=p1rlv6079.2 kV=0.12 Vminpu=0.8 Vmaxpu=1.2 model=1 kW=0.620005 kvar=0.1249208112822805 Phases=1

New Load.load_p1rlv6080_1 conn=wye bus1=p1rlv6080.1 kV=0.12 Vminpu=0.8 Vmaxpu=1.2 model=1 kW=0.90501 kvar=0.18518592725199493 Phases=1

New Load.load_p1rlv6080_2 conn=wye bus1=p1rlv6080.2 kV=0.12 Vminpu=0.8 Vmaxpu=1.2 model=1 kW=0.90501 kvar=0.18518592725199493 Phases=1

New Load.load_p1rlv6081_1 conn=wye bus1=p1rlv6081.1 kV=0.12 Vminpu=0.8 Vmaxpu=1.2 model=1 kW=0.570005 kvar=0.11514659243630554 Phases=1

New Load.load_p1rlv6081_2 conn=wye bus1=p1rlv6081.2 kV=0.12 Vminpu=0.8 Vmaxpu=1.2 model=1 kW=0.570005 kvar=0.11514659243630554 Phases=1

New Load.load_p1rlv6082_1 conn=wye bus1=p1rlv6082.1 kV=0.12 Vminpu=0.8 Vmaxpu=1.2 model=1 kW=5.52505 kvar=1.1190150396051934 Phases=1

New Load.load_p1rlv6082_2 conn=wye bus1=p1rlv6082.2 kV=0.12 Vminpu=0.8 Vmaxpu=1.2 model=1 kW=5.52505 kvar=1.1190150396051934 Phases=1

New Load.load_p1rlv6083_1 conn=wye bus1=p1rlv6083.1 kV=0.12 Vminpu=0.8 Vmaxpu=1.2 model=1 kW=4.17504 kvar=0.8499601012267745 Phases=1

New Load.load_p1rlv6083_2 conn=wye bus1=p1rlv6083.2 kV=0.12 Vminpu=0.8 Vmaxpu=1.2 model=1 kW=4.17504 kvar=0.8499601012267745 Phases=1

New Load.load_p1rlv6084_1 conn=wye bus1=p1rlv6084.1 kV=0.12 Vminpu=0.8 Vmaxpu=1.2 model=1 kW=2.21002 kvar=0.4499187607575488 Phases=1

New Load.load_p1rlv6084_2 conn=wye bus1=p1rlv6084.2 kV=0.12 Vminpu=0.8 Vmaxpu=1.2 model=1 kW=2.21002 kvar=0.4499187607575488 Phases=1

New Load.load_p1rlv6085_1 conn=wye bus1=p1rlv6085.1 kV=0.12 Vminpu=0.8 Vmaxpu=1.2 model=1 kW=1.620015 kvar=0.3298047715444386 Phases=1

New Load.load_p1rlv6085_2 conn=wye bus1=p1rlv6085.2 kV=0.12 Vminpu=0.8 Vmaxpu=1.2 model=1 kW=1.620015 kvar=0.3298047715444386 Phases=1

New Load.load_p1rlv6086_1 conn=wye bus1=p1rlv6086.1 kV=0.12 Vminpu=0.8 Vmaxpu=1.2 model=1 kW=1.480015 kvar=0.2997545802918128 Phases=1

New Load.load_p1rlv6086_2 conn=wye bus1=p1rlv6086.2 kV=0.12 Vminpu=0.8 Vmaxpu=1.2 model=1 kW=1.480015 kvar=0.2997545802918128 Phases=1

New Load.load_p1rlv6087_1 conn=wye bus1=p1rlv6087.1 kV=0.12 Vminpu=0.8 Vmaxpu=1.2 model=1 kW=1.11501 kvar=0.22524294003106118 Phases=1

New Load.load_p1rlv6087_2 conn=wye bus1=p1rlv6087.2 kV=0.12 Vminpu=0.8 Vmaxpu=1.2 model=1 kW=1.11501 kvar=0.22524294003106118 Phases=1

New Load.load_p1rlv6088_1 conn=wye bus1=p1rlv6088.1 kV=0.12 Vminpu=0.8 Vmaxpu=1.2 model=1 kW=0.610005 kvar=0.12513777380057528 Phases=1

New Load.load_p1rlv6088_2 conn=wye bus1=p1rlv6088.2 kV=0.12 Vminpu=0.8 Vmaxpu=1.2 model=1 kW=0.610005 kvar=0.12513777380057528 Phases=1

New Load.load_p1rlv6089_1 conn=wye bus1=p1rlv6089.1 kV=0.12 Vminpu=0.8 Vmaxpu=1.2 model=1 kW=1.75002 kvar=0.35535671728272017 Phases=1

New Load.load_p1rlv6089_2 conn=wye bus1=p1rlv6089.2 kV=0.12 Vminpu=0.8 Vmaxpu=1.2 model=1 kW=1.75002 kvar=0.35535671728272017 Phases=1

New Load.load_p1rlv6090_1 conn=wye bus1=p1rlv6090.1 kV=0.12 Vminpu=0.8 Vmaxpu=1.2 model=1 kW=1.600015 kvar=0.3248969028943164 Phases=1

New Load.load_p1rlv6090_2 conn=wye bus1=p1rlv6090.2 kV=0.12 Vminpu=0.8 Vmaxpu=1.2 model=1 kW=1.600015 kvar=0.3248969028943164 Phases=1

New Load.load_p1rlv6516_1 conn=wye bus1=p1rlv6516.1 kV=0.12 Vminpu=0.8 Vmaxpu=1.2 model=1 kW=0.8650100000000001 kvar=0.175194649715186 Phases=1

New Load.load_p1rlv6516_2 conn=wye bus1=p1rlv6516.2 kV=0.12 Vminpu=0.8 Vmaxpu=1.2 model=1 kW=0.8650100000000001 kvar=0.175194649715186 Phases=1

New Load.load_p1rlv6517_1 conn=wye bus1=p1rlv6517.1 kV=0.12 Vminpu=0.8 Vmaxpu=1.2 model=1 kW=0.85001 kvar=0.1699148742584558 Phases=1

New Load.load_p1rlv6517_2 conn=wye bus1=p1rlv6517.2 kV=0.12 Vminpu=0.8 Vmaxpu=1.2 model=1 kW=0.85001 kvar=0.1699148742584558 Phases=1

New Load.load_p1rlv6518_1 conn=wye bus1=p1rlv6518.1 kV=0.12 Vminpu=0.8 Vmaxpu=1.2 model=1 kW=5.61505 kvar=1.1401845323929658 Phases=1

New Load.load_p1rlv6518_2 conn=wye bus1=p1rlv6518.2 kV=0.12 Vminpu=0.8 Vmaxpu=1.2 model=1 kW=5.61505 kvar=1.1401845323929658 Phases=1

New Load.load_p1rlv6530_1 conn=wye bus1=p1rlv6530.1 kV=0.12 Vminpu=0.8 Vmaxpu=1.2 model=1 kW=9.5701 kvar=1.9432916881334845 Phases=1

New Load.load_p1rlv6530_2 conn=wye bus1=p1rlv6530.2 kV=0.12 Vminpu=0.8 Vmaxpu=1.2 model=1 kW=9.5701 kvar=1.9432916881334845 Phases=1

New Load.load_p1rlv6531_1 conn=wye bus1=p1rlv6531.1 kV=0.12 Vminpu=0.8 Vmaxpu=1.2 model=1 kW=5.98505 kvar=1.2153162368275476 Phases=1

New Load.load_p1rlv6531_2 conn=wye bus1=p1rlv6531.2 kV=0.12 Vminpu=0.8 Vmaxpu=1.2 model=1 kW=5.98505 kvar=1.2153162368275476 Phases=1

New Load.load_p1rlv6532_1 conn=wye bus1=p1rlv6532.1 kV=0.12 Vminpu=0.8 Vmaxpu=1.2 model=1 kW=2.89503 kvar=0.9505226374083149 Phases=1

New Load.load_p1rlv6532_2 conn=wye bus1=p1rlv6532.2 kV=0.12 Vminpu=0.8 Vmaxpu=1.2 model=1 kW=2.89503 kvar=0.9505226374083149 Phases=1

New Load.load_p1rlv6533_1 conn=wye bus1=p1rlv6533.1 kV=0.12 Vminpu=0.8 Vmaxpu=1.2 model=1 kW=0.4750045 kvar=0.15494334648913669 Phases=1

New Load.load_p1rlv6533_2 conn=wye bus1=p1rlv6533.2 kV=0.12 Vminpu=0.8 Vmaxpu=1.2 model=1 kW=0.4750045 kvar=0.15494334648913669 Phases=1

New Load.load_p1rlv6534 conn=wye bus1=p1rlv6534.1.2.3 kV=0.48 Vminpu=0.8 Vmaxpu=1.2 model=1 kW=96.581 kvar=19.611608502692768 Phases=3

New Load.load_p1rlv6535_1 conn=wye bus1=p1rlv6535.1 kV=0.12 Vminpu=0.8 Vmaxpu=1.2 model=1 kW=1.2550150000000002 kvar=0.2548416649755849 Phases=1

New Load.load_p1rlv6535_2 conn=wye bus1=p1rlv6535.2 kV=0.12 Vminpu=0.8 Vmaxpu=1.2 model=1 kW=1.2550150000000002 kvar=0.2548416649755849 Phases=1

New Load.load_p1rlv6536_1 conn=wye bus1=p1rlv6536.1 kV=0.12 Vminpu=0.8 Vmaxpu=1.2 model=1 kW=0.8600100000000002 kvar=0.17508196009045146 Phases=1

New Load.load_p1rlv6536_2 conn=wye bus1=p1rlv6536.2 kV=0.12 Vminpu=0.8 Vmaxpu=1.2 model=1 kW=0.8600100000000002 kvar=0.17508196009045146 Phases=1

New Load.load_p1rlv6537_1 conn=wye bus1=p1rlv6537.1 kV=0.12 Vminpu=0.8 Vmaxpu=1.2 model=1 kW=0.84501 kvar=0.16980991337253348 Phases=1

New Load.load_p1rlv6537_2 conn=wye bus1=p1rlv6537.2 kV=0.12 Vminpu=0.8 Vmaxpu=1.2 model=1 kW=0.84501 kvar=0.16980991337253348 Phases=1

New Load.load_p1rlv6538_1 conn=wye bus1=p1rlv6538.1 kV=0.12 Vminpu=0.8 Vmaxpu=1.2 model=1 kW=1.05501 kvar=0.21478031501381048 Phases=1

New Load.load_p1rlv6538_2 conn=wye bus1=p1rlv6538.2 kV=0.12 Vminpu=0.8 Vmaxpu=1.2 model=1 kW=1.05501 kvar=0.21478031501381048 Phases=1

New Load.load_p1rlv6539_1 conn=wye bus1=p1rlv6539.1 kV=0.12 Vminpu=0.8 Vmaxpu=1.2 model=1 kW=0.620005 kvar=0.1249208112822805 Phases=1

New Load.load_p1rlv6539_2 conn=wye bus1=p1rlv6539.2 kV=0.12 Vminpu=0.8 Vmaxpu=1.2 model=1 kW=0.620005 kvar=0.1249208112822805 Phases=1

New Load.load_p1rlv6540_1 conn=wye bus1=p1rlv6540.1 kV=0.12 Vminpu=0.8 Vmaxpu=1.2 model=1 kW=0.540005 kvar=0.10993492384814621 Phases=1

New Load.load_p1rlv6540_2 conn=wye bus1=p1rlv6540.2 kV=0.12 Vminpu=0.8 Vmaxpu=1.2 model=1 kW=0.540005 kvar=0.10993492384814621 Phases=1

New Load.load_p1rlv6541_1 conn=wye bus1=p1rlv6541.1 kV=0.12 Vminpu=0.8 Vmaxpu=1.2 model=1 kW=0.4750045 kvar=0.0949522121971514 Phases=1

New Load.load_p1rlv6541_2 conn=wye bus1=p1rlv6541.2 kV=0.12 Vminpu=0.8 Vmaxpu=1.2 model=1 kW=0.4750045 kvar=0.0949522121971514 Phases=1

New Load.load_p1rlv6542_1 conn=wye bus1=p1rlv6542.1 kV=0.12 Vminpu=0.8 Vmaxpu=1.2 model=1 kW=0.88001 kvar=0.18007035042820305 Phases=1

New Load.load_p1rlv6542_2 conn=wye bus1=p1rlv6542.2 kV=0.12 Vminpu=0.8 Vmaxpu=1.2 model=1 kW=0.88001 kvar=0.18007035042820305 Phases=1

New Load.load_p1rlv6543_1 conn=wye bus1=p1rlv6543.1 kV=0.12 Vminpu=0.8 Vmaxpu=1.2 model=1 kW=0.9850100000000002 kvar=0.2000148113111006 Phases=1

New Load.load_p1rlv6543_2 conn=wye bus1=p1rlv6543.2 kV=0.12 Vminpu=0.8 Vmaxpu=1.2 model=1 kW=0.9850100000000002 kvar=0.2000148113111006 Phases=1

New Load.load_p1rlv6544_1 conn=wye bus1=p1rlv6544.1 kV=0.12 Vminpu=0.8 Vmaxpu=1.2 model=1 kW=0.740005 kvar=0.14987678380884176 Phases=1

New Load.load_p1rlv6544_2 conn=wye bus1=p1rlv6544.2 kV=0.12 Vminpu=0.8 Vmaxpu=1.2 model=1 kW=0.740005 kvar=0.14987678380884176 Phases=1

New Load.load_p1rlv6545_1 conn=wye bus1=p1rlv6545.1 kV=0.12 Vminpu=0.8 Vmaxpu=1.2 model=1 kW=4.81005 kvar=0.974202639116924 Phases=1

New Load.load_p1rlv6545_2 conn=wye bus1=p1rlv6545.2 kV=0.12 Vminpu=0.8 Vmaxpu=1.2 model=1 kW=4.81005 kvar=0.974202639116924 Phases=1

New Load.load_p1rlv6546_1 conn=wye bus1=p1rlv6546.1 kV=0.12 Vminpu=0.8 Vmaxpu=1.2 model=1 kW=1.705015 kvar=0.34532491610979965 Phases=1

New Load.load_p1rlv6546_2 conn=wye bus1=p1rlv6546.2 kV=0.12 Vminpu=0.8 Vmaxpu=1.2 model=1 kW=1.705015 kvar=0.34532491610979965 Phases=1

New Load.load_p1rlv6547_1 conn=wye bus1=p1rlv6547.1 kV=0.12 Vminpu=0.8 Vmaxpu=1.2 model=1 kW=2.22002 kvar=0.4496313641006546 Phases=1

New Load.load_p1rlv6547_2 conn=wye bus1=p1rlv6547.2 kV=0.12 Vminpu=0.8 Vmaxpu=1.2 model=1 kW=2.22002 kvar=0.4496313641006546 Phases=1

New Load.load_p1rlv6548_1 conn=wye bus1=p1rlv6548.1 kV=0.12 Vminpu=0.8 Vmaxpu=1.2 model=1 kW=0.79001 kvar=0.16000453777585702 Phases=1

New Load.load_p1rlv6548_2 conn=wye bus1=p1rlv6548.2 kV=0.12 Vminpu=0.8 Vmaxpu=1.2 model=1 kW=0.79001 kvar=0.16000453777585702 Phases=1

New Load.load_p1rlv6549_1 conn=wye bus1=p1rlv6549.1 kV=0.12 Vminpu=0.8 Vmaxpu=1.2 model=1 kW=1.01001 kvar=0.2050912778269507 Phases=1

New Load.load_p1rlv6549_2 conn=wye bus1=p1rlv6549.2 kV=0.12 Vminpu=0.8 Vmaxpu=1.2 model=1 kW=1.01001 kvar=0.2050912778269507 Phases=1

New Load.load_p1rlv6550_1 conn=wye bus1=p1rlv6550.1 kV=0.12 Vminpu=0.8 Vmaxpu=1.2 model=1 kW=0.695005 kvar=0.14003207787879351 Phases=1

New Load.load_p1rlv6550_2 conn=wye bus1=p1rlv6550.2 kV=0.12 Vminpu=0.8 Vmaxpu=1.2 model=1 kW=0.695005 kvar=0.14003207787879351 Phases=1

New Load.load_p1rlv6551_1 conn=wye bus1=p1rlv6551.1 kV=0.12 Vminpu=0.8 Vmaxpu=1.2 model=1 kW=1.10001 kvar=0.22508742647757143 Phases=1

New Load.load_p1rlv6551_2 conn=wye bus1=p1rlv6551.2 kV=0.12 Vminpu=0.8 Vmaxpu=1.2 model=1 kW=1.10001 kvar=0.22508742647757143 Phases=1

New Load.load_p1rlv6552_1 conn=wye bus1=p1rlv6552.1 kV=0.12 Vminpu=0.8 Vmaxpu=1.2 model=1 kW=2.405025 kvar=0.48961813358744427 Phases=1

New Load.load_p1rlv6552_2 conn=wye bus1=p1rlv6552.2 kV=0.12 Vminpu=0.8 Vmaxpu=1.2 model=1 kW=2.405025 kvar=0.48961813358744427 Phases=1

New Load.load_p1rlv6553_1 conn=wye bus1=p1rlv6553.1 kV=0.12 Vminpu=0.8 Vmaxpu=1.2 model=1 kW=1.330015 kvar=0.2700710645231352 Phases=1

New Load.load_p1rlv6553_2 conn=wye bus1=p1rlv6553.2 kV=0.12 Vminpu=0.8 Vmaxpu=1.2 model=1 kW=1.330015 kvar=0.2700710645231352 Phases=1

New Load.load_p1rlv6554_1 conn=wye bus1=p1rlv6554.1 kV=0.12 Vminpu=0.8 Vmaxpu=1.2 model=1 kW=1.705015 kvar=0.34532491610979965 Phases=1

New Load.load_p1rlv6554_2 conn=wye bus1=p1rlv6554.2 kV=0.12 Vminpu=0.8 Vmaxpu=1.2 model=1 kW=1.705015 kvar=0.34532491610979965 Phases=1

New Load.load_p1rlv6565_1 conn=wye bus1=p1rlv6565.1 kV=0.12 Vminpu=0.8 Vmaxpu=1.2 model=1 kW=0.82501 kvar=0.17009811707696765 Phases=1

New Load.load_p1rlv6565_2 conn=wye bus1=p1rlv6565.2 kV=0.12 Vminpu=0.8 Vmaxpu=1.2 model=1 kW=0.82501 kvar=0.17009811707696765 Phases=1

New Load.load_p1rlv6566_1 conn=wye bus1=p1rlv6566.1 kV=0.12 Vminpu=0.8 Vmaxpu=1.2 model=1 kW=0.320003 kvar=0.06497938057886327 Phases=1

New Load.load_p1rlv6566_2 conn=wye bus1=p1rlv6566.2 kV=0.12 Vminpu=0.8 Vmaxpu=1.2 model=1 kW=0.320003 kvar=0.06497938057886327 Phases=1

New Load.load_p1rlv6567_1 conn=wye bus1=p1rlv6567.1 kV=0.12 Vminpu=0.8 Vmaxpu=1.2 model=1 kW=0.4700045 kvar=0.09494551206520921 Phases=1

New Load.load_p1rlv6567_2 conn=wye bus1=p1rlv6567.2 kV=0.12 Vminpu=0.8 Vmaxpu=1.2 model=1 kW=0.4700045 kvar=0.09494551206520921 Phases=1

New Load.load_p1rlv6568_1 conn=wye bus1=p1rlv6568.1 kV=0.12 Vminpu=0.8 Vmaxpu=1.2 model=1 kW=2.250025 kvar=0.4545270859843306 Phases=1

New Load.load_p1rlv6568_2 conn=wye bus1=p1rlv6568.2 kV=0.12 Vminpu=0.8 Vmaxpu=1.2 model=1 kW=2.250025 kvar=0.4545270859843306 Phases=1

New Load.load_p1rlv6569_1 conn=wye bus1=p1rlv6569.1 kV=0.12 Vminpu=0.8 Vmaxpu=1.2 model=1 kW=1.10501 kvar=0.2249593803787744 Phases=1

New Load.load_p1rlv6569_2 conn=wye bus1=p1rlv6569.2 kV=0.12 Vminpu=0.8 Vmaxpu=1.2 model=1 kW=1.10501 kvar=0.2249593803787744 Phases=1

New Load.load_p1rlv6570_1 conn=wye bus1=p1rlv6570.1 kV=0.12 Vminpu=0.8 Vmaxpu=1.2 model=1 kW=1.290015 kvar=0.25991680771334275 Phases=1

New Load.load_p1rlv6570_2 conn=wye bus1=p1rlv6570.2 kV=0.12 Vminpu=0.8 Vmaxpu=1.2 model=1 kW=1.290015 kvar=0.25991680771334275 Phases=1

New Load.load_p1rlv6571_1 conn=wye bus1=p1rlv6571.1 kV=0.12 Vminpu=0.8 Vmaxpu=1.2 model=1 kW=0.5250050000000002 kvar=0.10494718716257527 Phases=1

New Load.load_p1rlv6571_2 conn=wye bus1=p1rlv6571.2 kV=0.12 Vminpu=0.8 Vmaxpu=1.2 model=1 kW=0.5250050000000002 kvar=0.10494718716257527 Phases=1

New Load.load_p1rlv6572_1 conn=wye bus1=p1rlv6572.1 kV=0.12 Vminpu=0.8 Vmaxpu=1.2 model=1 kW=0.94501 kvar=0.18990552329105911 Phases=1

New Load.load_p1rlv6572_2 conn=wye bus1=p1rlv6572.2 kV=0.12 Vminpu=0.8 Vmaxpu=1.2 model=1 kW=0.94501 kvar=0.18990552329105911 Phases=1

New Load.load_p1rlv6573_1 conn=wye bus1=p1rlv6573.1 kV=0.12 Vminpu=0.8 Vmaxpu=1.2 model=1 kW=2.2450200000000002 kvar=0.45469473474709754 Phases=1

New Load.load_p1rlv6573_2 conn=wye bus1=p1rlv6573.2 kV=0.12 Vminpu=0.8 Vmaxpu=1.2 model=1 kW=2.2450200000000002 kvar=0.45469473474709754 Phases=1

New Load.load_p1rlv6574_1 conn=wye bus1=p1rlv6574.1 kV=0.12 Vminpu=0.8 Vmaxpu=1.2 model=1 kW=0.82001 kvar=0.16478601089290207 Phases=1

New Load.load_p1rlv6574_2 conn=wye bus1=p1rlv6574.2 kV=0.12 Vminpu=0.8 Vmaxpu=1.2 model=1 kW=0.82001 kvar=0.16478601089290207 Phases=1

New Load.load_p1rlv6575_1 conn=wye bus1=p1rlv6575.1 kV=0.12 Vminpu=0.8 Vmaxpu=1.2 model=1 kW=0.96501 kvar=0.19494147098176193 Phases=1

New Load.load_p1rlv6575_2 conn=wye bus1=p1rlv6575.2 kV=0.12 Vminpu=0.8 Vmaxpu=1.2 model=1 kW=0.96501 kvar=0.19494147098176193 Phases=1
