New Line.l(r:p6udt4201lv-p6ulv13783) Units=km Length=0.001 bus1=p6udt4201lv.1.2 bus2=p6ulv13783.1.2 switch=n enabled=y phases=2 Linecode=1P_UG_AL_1/0_Brenau_2

New Line.l(r:p6udm14527-p6ulv13787) Units=km Length=0.0202531 bus1=p6udm14527.1.2 bus2=p6ulv13787.1.2 switch=n enabled=y phases=2 Linecode=1P_UG_AL_1/0_Brenau_2

New Line.l(r:p6udm14526-p6ulv13784) Units=km Length=0.126005 bus1=p6udm14526.1.2 bus2=p6ulv13784.1.2 switch=n enabled=y phases=2 Linecode=1P_UG_AL_1/0_Brenau_2

New Line.l(r:p6udm14526-p6udm14527) Units=km Length=0.008786 bus1=p6udm14527.1.2 bus2=p6udm14526.1.2 switch=n enabled=y phases=2 Linecode=1P_UG_AL_1/0_Brenau_2

New Line.l(r:p6udm14527-p6udt4202lv) Units=km Length=0.0087854 bus1=p6udt4202lv.1.2 bus2=p6udm14527.1.2 switch=n enabled=y phases=2 Linecode=1P_UG_AL_1/0_Brenau_2

New Line.l(r:p6udm14528-p6ulv13801) Units=km Length=0.139554 bus1=p6udm14528.1.2 bus2=p6ulv13801.1.2 switch=n enabled=y phases=2 Linecode=1P_UG_AL_1/0_Brenau_2

New Line.l(r:p6udm14528-p6udt4202lv) Units=km Length=0.0436141 bus1=p6udt4202lv.1.2 bus2=p6udm14528.1.2 switch=n enabled=y phases=2 Linecode=1P_UG_AL_1/0_Brenau_2

New Line.l(r:p6udm14529-p6ulv13785) Units=km Length=0.0177219 bus1=p6udm14529.1.2 bus2=p6ulv13785.1.2 switch=n enabled=y phases=2 Linecode=1P_UG_AL_1/0_Brenau_2

New Line.l(r:p6udm14529-p6udt4203lv) Units=km Length=0.038078200000000006 bus1=p6udt4203lv.1.2 bus2=p6udm14529.1.2 switch=n enabled=y phases=2 Linecode=1P_OH_AL_4/0_Zuzara_2

New Line.l(r:p6udm14530-p6ulv13788) Units=km Length=0.0492454 bus1=p6udm14530.1.2 bus2=p6ulv13788.1.2 switch=n enabled=y phases=2 Linecode=1P_OH_AL_4/0_Zuzara_2

New Line.l(r:p6udm14530-p6udt4203lv) Units=km Length=0.0336609 bus1=p6udt4203lv.1.2 bus2=p6udm14530.1.2 switch=n enabled=y phases=2 Linecode=1P_OH_AL_4/0_Zuzara_2

New Line.l(r:p6udt4204lv-p6ulv13791) Units=km Length=0.0226476 bus1=p6udt4204lv.1.2 bus2=p6ulv13791.1.2 switch=n enabled=y phases=2 Linecode=1P_UG_AL_1/0_Brenau_2

New Line.l(r:p6udm14531-p6ulv13789) Units=km Length=0.0763765 bus1=p6udm14531.1.2 bus2=p6ulv13789.1.2 switch=n enabled=y phases=2 Linecode=1P_UG_AL_1/0_Brenau_2

New Line.l(r:p6udm14531-p6ulv13790) Units=km Length=0.063042 bus1=p6udm14531.1.2 bus2=p6ulv13790.1.2 switch=n enabled=y phases=2 Linecode=1P_UG_AL_1/0_Brenau_2

New Line.l(r:p6udm14531-p6udt4204lv) Units=km Length=0.00570481 bus1=p6udt4204lv.1.2 bus2=p6udm14531.1.2 switch=n enabled=y phases=2 Linecode=1P_UG_AL_1/0_Brenau_2

New Line.l(r:p6udm14534-p6ulv13792) Units=km Length=0.00773946 bus1=p6udm14534.1.2 bus2=p6ulv13792.1.2 switch=n enabled=y phases=2 Linecode=1P_UG_AL_1/0_Brenau_2

New Line.l(r:p6udm14534-p6udt4204lv) Units=km Length=0.028397500000000003 bus1=p6udt4204lv.1.2 bus2=p6udm14534.1.2 switch=n enabled=y phases=2 Linecode=1P_UG_AL_1/0_Brenau_2

New Line.l(r:p6udt4205lv-p6ulv13794) Units=km Length=0.0599785 bus1=p6udt4205lv.1.2 bus2=p6ulv13794.1.2 switch=n enabled=y phases=2 Linecode=1P_UG_AL_1/0_Brenau_2

New Line.l(r:p6udt4205lv-p6ulv13795) Units=km Length=0.04281410000000001 bus1=p6udt4205lv.1.2 bus2=p6ulv13795.1.2 switch=n enabled=y phases=2 Linecode=1P_UG_AL_4/0_Sweetbriar_2

New Line.l(r:p6udm14535-p6ulv13793) Units=km Length=0.034529 bus1=p6udm14535.1.2 bus2=p6ulv13793.1.2 switch=n enabled=y phases=2 Linecode=1P_UG_AL_1/0_Brenau_2

New Line.l(r:p6udm14535-p6udt4205lv) Units=km Length=0.0124011 bus1=p6udt4205lv.1.2 bus2=p6udm14535.1.2 switch=n enabled=y phases=2 Linecode=1P_UG_AL_1/0_Brenau_2

New Line.l(r:p6udt4207lv-p6ulv13797) Units=km Length=0.0179048 bus1=p6udt4207lv.1.2 bus2=p6ulv13797.1.2 switch=n enabled=y phases=2 Linecode=1P_UG_AL_1/0_Brenau_2

New Line.l(r:p6udt4207lv-p6ulv13798) Units=km Length=0.07695600000000001 bus1=p6udt4207lv.1.2 bus2=p6ulv13798.1.2 switch=n enabled=y phases=2 Linecode=1P_UG_AL_1/0_Brenau_2

New Line.l(r:p6udt4208lv-p6ulv13799) Units=km Length=0.0761438 bus1=p6udt4208lv.1.2 bus2=p6ulv13799.1.2 switch=n enabled=y phases=2 Linecode=1P_UG_AL_1/0_Brenau_2

New Line.l(r:p6udt4209lv-p6ulv13800) Units=km Length=0.0706789 bus1=p6udt4209lv.1.2 bus2=p6ulv13800.1.2 switch=n enabled=y phases=2 Linecode=1P_UG_AL_1/0_Brenau_2

New Line.l(r:p6udm15142-p6ulv14405) Units=km Length=0.023142 bus1=p6udm15142.1.2 bus2=p6ulv14405.1.2 switch=n enabled=y phases=2 Linecode=1P_UG_AL_1/0_Brenau_2

New Line.l(r:p6udm15142-p6udt4358lv) Units=km Length=0.0358236 bus1=p6udt4358lv.1.2 bus2=p6udm15142.1.2 switch=n enabled=y phases=2 Linecode=1P_UG_AL_1/0_Brenau_2

New Line.l(r:p6udm15143-p6ulv14406) Units=km Length=0.00877046 bus1=p6udm15143.1.2 bus2=p6ulv14406.1.2 switch=n enabled=y phases=2 Linecode=1P_UG_AL_1/0_Brenau_2

New Line.l(r:p6udm15144-p6ulv14407) Units=km Length=0.0173667 bus1=p6udm15144.1.2 bus2=p6ulv14407.1.2 switch=n enabled=y phases=2 Linecode=1P_UG_AL_1/0_Brenau_2

New Line.l(r:p6udm15143-p6udm15144) Units=km Length=0.0321267 bus1=p6udm15143.1.2 bus2=p6udm15144.1.2 switch=n enabled=y phases=2 Linecode=1P_UG_AL_1/0_Brenau_2

New Line.l(r:p6udm15143-p6udt4358lv) Units=km Length=0.00896162 bus1=p6udt4358lv.1.2 bus2=p6udm15143.1.2 switch=n enabled=y phases=2 Linecode=1P_UG_AL_1/0_Brenau_2

New Line.l(r:p6udm15145-p6ulv14408) Units=km Length=0.0083472 bus1=p6udm15145.1.2 bus2=p6ulv14408.1.2 switch=n enabled=y phases=2 Linecode=1P_OH_AL_2/0_Rucina_2

New Line.l(r:p6udm15145-p6udt4359lv) Units=km Length=0.0448673 bus1=p6udt4359lv.1.2 bus2=p6udm15145.1.2 switch=n enabled=y phases=2 Linecode=1P_OH_AL_4/0_Zuzara_2

New Line.l(r:p6udm15146-p6ulv14415) Units=km Length=0.0408038 bus1=p6udm15146.1.2 bus2=p6ulv14415.1.2 switch=n enabled=y phases=2 Linecode=1P_UG_AL_1/0_Brenau_2

New Line.l(r:p6udm15146-p6udt4359lv) Units=km Length=0.0159986 bus1=p6udt4359lv.1.2 bus2=p6udm15146.1.2 switch=n enabled=y phases=2 Linecode=1P_UG_AL_1/0_Brenau_2

New Line.l(r:p6udt4360lv-p6ulv14409) Units=km Length=0.08115390000000001 bus1=p6udt4360lv.1.2 bus2=p6ulv14409.1.2 switch=n enabled=y phases=2 Linecode=1P_OH_AL_4/0_Zuzara_2

New Line.l(r:p6udt4361lv-p6ulv14412) Units=km Length=0.102445 bus1=p6udt4361lv.1.2 bus2=p6ulv14412.1.2 switch=n enabled=y phases=2 Linecode=1P_UG_AL_1/0_Brenau_2

New Line.l(r:p6udm15148-p6ulv14410) Units=km Length=0.0170758 bus1=p6udm15148.1.2 bus2=p6ulv14410.1.2 switch=n enabled=y phases=2 Linecode=1P_UG_AL_1/0_Brenau_2

New Line.l(r:p6udm15148-p6udt4361lv) Units=km Length=0.0134929 bus1=p6udt4361lv.1.2 bus2=p6udm15148.1.2 switch=n enabled=y phases=2 Linecode=1P_UG_AL_1/0_Brenau_2

New Line.l(r:p6udm15149-p6ulv14411) Units=km Length=0.00336933 bus1=p6udm15149.1.2 bus2=p6ulv14411.1.2 switch=n enabled=y phases=2 Linecode=1P_UG_AL_1/0_Brenau_2

New Line.l(r:p6udm15149-p6udt4361lv) Units=km Length=0.0167625 bus1=p6udt4361lv.1.2 bus2=p6udm15149.1.2 switch=n enabled=y phases=2 Linecode=1P_UG_AL_1/0_Brenau_2

New Line.l(r:p6udt4362lv-p6ulv14413) Units=km Length=0.001 bus1=p6udt4362lv.1.2 bus2=p6ulv14413.1.2 switch=n enabled=y phases=2 Linecode=1P_UG_AL_1/0_Brenau_2

New Line.l(r:p6udt4363lv-p6ulv14414) Units=km Length=0.0180573 bus1=p6udt4363lv.1.2 bus2=p6ulv14414.1.2 switch=n enabled=y phases=2 Linecode=1P_OH_AL_2/0_Rucina_2

New Line.l(r:p6udt4453lv-p6ulv14574) Units=km Length=0.0304345 bus1=p6udt4453lv.1.2 bus2=p6ulv14574.1.2 switch=n enabled=y phases=2 Linecode=1P_UG_AL_1/0_Brenau_2

New Line.l(r:p6udm15341-p6ulv14575) Units=km Length=0.00432946 bus1=p6udm15341.1.2 bus2=p6ulv14575.1.2 switch=n enabled=y phases=2 Linecode=1P_UG_AL_1/0_Brenau_2

New Line.l(r:p6udm15342-p6ulv14576) Units=km Length=0.0295877 bus1=p6udm15342.1.2 bus2=p6ulv14576.1.2 switch=n enabled=y phases=2 Linecode=1P_UG_AL_1/0_Brenau_2

New Line.l(r:p6udm15342-p6ulv14577) Units=km Length=0.0195987 bus1=p6udm15342.1.2 bus2=p6ulv14577.1.2 switch=n enabled=y phases=2 Linecode=1P_UG_AL_1/0_Brenau_2

New Line.l(r:p6udm15344-p6ulv14578) Units=km Length=0.0702305 bus1=p6udm15344.1.2 bus2=p6ulv14578.1.2 switch=n enabled=y phases=2 Linecode=1P_UG_AL_1/0_Brenau_2

New Line.l(r:p6udm15342-p6udm15344) Units=km Length=0.0137405 bus1=p6udm15342.1.2 bus2=p6udm15344.1.2 switch=n enabled=y phases=2 Linecode=1P_UG_AL_1/0_Brenau_2

New Line.l(r:p6udm15341-p6udm15342) Units=km Length=0.0248035 bus1=p6udm15341.1.2 bus2=p6udm15342.1.2 switch=n enabled=y phases=2 Linecode=1P_UG_AL_1/0_Brenau_2

New Line.l(r:p6udm15341-p6udt4453lv) Units=km Length=0.0193986 bus1=p6udt4453lv.1.2 bus2=p6udm15341.1.2 switch=n enabled=y phases=2 Linecode=1P_UG_AL_1/0_Brenau_2

New Line.l(r:p6udt4454lv-p6ulv14579) Units=km Length=0.0482404 bus1=p6udt4454lv.1.2 bus2=p6ulv14579.1.2 switch=n enabled=y phases=2 Linecode=1P_UG_AL_1/0_Brenau_2

New Line.l(r:p6udt4455lv-p6ulv14580) Units=km Length=0.0394492 bus1=p6udt4455lv.1.2 bus2=p6ulv14580.1.2 switch=n enabled=y phases=2 Linecode=1P_OH_AL_4/0_Zuzara_2

New Line.l(r:p6udt4456lv-p6ulv14581) Units=km Length=0.0222838 bus1=p6udt4456lv.1.2 bus2=p6ulv14581.1.2 switch=n enabled=y phases=2 Linecode=1P_OH_AL_2/0_Rucina_2

New Line.l(r:p6udt4456lv-p6ulv26811) Units=km Length=0.05962490000000001 bus1=p6udt4456lv.1.2 bus2=p6ulv26811.1.2 switch=n enabled=y phases=2 Linecode=1P_OH_AL_4/0_Zuzara_2

New Line.l(r:p6udt4457lv-p6ulv14582) Units=km Length=0.066026 bus1=p6udt4457lv.1.2 bus2=p6ulv14582.1.2 switch=n enabled=y phases=2 Linecode=1P_UG_AL_1/0_Brenau_2

New Line.l(r:p6udt4458lv-p6ulv14587) Units=km Length=0.00652963 bus1=p6udt4458lv.1.2 bus2=p6ulv14587.1.2 switch=n enabled=y phases=2 Linecode=1P_UG_AL_1/0_Brenau_2

New Line.l(r:p6udm15351-p6ulv14584) Units=km Length=0.042464 bus1=p6udm15351.1.2 bus2=p6ulv14584.1.2 switch=n enabled=y phases=2 Linecode=1P_UG_AL_1/0_Brenau_2

New Line.l(r:p6udm15357-p6ulv14590) Units=km Length=0.0085924 bus1=p6udm15357.1.2 bus2=p6ulv14590.1.2 switch=n enabled=y phases=2 Linecode=1P_UG_AL_1/0_Brenau_2

New Line.l(r:p6udm15356-p6ulv14589) Units=km Length=0.00140132 bus1=p6udm15356.1.2 bus2=p6ulv14589.1.2 switch=n enabled=y phases=2 Linecode=1P_UG_AL_1/0_Brenau_2

New Line.l(r:p6udm15356-p6udm15357) Units=km Length=0.0419525 bus1=p6udm15357.1.2 bus2=p6udm15356.1.2 switch=n enabled=y phases=2 Linecode=1P_UG_AL_1/0_Brenau_2

New Line.l(r:p6udm15351-p6udm15357) Units=km Length=0.0214153 bus1=p6udm15351.1.2 bus2=p6udm15357.1.2 switch=n enabled=y phases=2 Linecode=1P_UG_AL_1/0_Brenau_2

New Line.l(r:p6udm15351-p6udt4458lv) Units=km Length=0.00877046 bus1=p6udt4458lv.1.2 bus2=p6udm15351.1.2 switch=n enabled=y phases=2 Linecode=1P_UG_AL_1/0_Brenau_2

New Line.l(r:p6udm15352-p6ulv14585) Units=km Length=0.0179036 bus1=p6udm15352.1.2 bus2=p6ulv14585.1.2 switch=n enabled=y phases=2 Linecode=1P_UG_AL_1/0_Brenau_2

New Line.l(r:p6udm15352-p6ulv14588) Units=km Length=0.00303916 bus1=p6udm15352.1.2 bus2=p6ulv14588.1.2 switch=n enabled=y phases=2 Linecode=1P_UG_AL_1/0_Brenau_2

New Line.l(r:p6udm15350-p6ulv14583) Units=km Length=0.0559775 bus1=p6udm15350.1.2 bus2=p6ulv14583.1.2 switch=n enabled=y phases=2 Linecode=1P_UG_AL_1/0_Brenau_2

New Line.l(r:p6udm15353-p6ulv14586) Units=km Length=0.0017705400000000001 bus1=p6udm15353.1.2 bus2=p6ulv14586.1.2 switch=n enabled=y phases=2 Linecode=1P_UG_AL_1/0_Brenau_2

New Line.l(r:p6udm15350-p6udm15353) Units=km Length=0.00687204 bus1=p6udm15350.1.2 bus2=p6udm15353.1.2 switch=n enabled=y phases=2 Linecode=1P_UG_AL_1/0_Brenau_2

New Line.l(r:p6udm15350-p6udm15352) Units=km Length=0.015154 bus1=p6udm15352.1.2 bus2=p6udm15350.1.2 switch=n enabled=y phases=2 Linecode=1P_UG_AL_1/0_Brenau_2

New Line.l(r:p6udm15352-p6udt4458lv) Units=km Length=0.0170473 bus1=p6udt4458lv.1.2 bus2=p6udm15352.1.2 switch=n enabled=y phases=2 Linecode=1P_UG_AL_1/0_Brenau_2

New Line.l(r:p6udt4939lv-p6ulv16573) Units=km Length=0.060536 bus1=p6udt4939lv.1.2 bus2=p6ulv16573.1.2 switch=n enabled=y phases=2 Linecode=1P_UG_AL_1/0_Brenau_2

New Line.l(r:p6udt4940lv-p6ulv16574) Units=km Length=0.0404527 bus1=p6udt4940lv.1.2 bus2=p6ulv16574.1.2 switch=n enabled=y phases=2 Linecode=1P_UG_AL_1/0_Brenau_2

New Line.l(r:p6udm17394-p6ulv16575) Units=km Length=0.0283602 bus1=p6udm17394.1.2 bus2=p6ulv16575.1.2 switch=n enabled=y phases=2 Linecode=1P_UG_AL_1/0_Brenau_2

New Line.l(r:p6udm17394-p6udt4941lv) Units=km Length=0.0183712 bus1=p6udt4941lv.1.2 bus2=p6udm17394.1.2 switch=n enabled=y phases=2 Linecode=1P_UG_AL_1/0_Brenau_2

New Line.l(r:p6udm17395-p6ulv16578) Units=km Length=0.0158804 bus1=p6udm17395.1.2 bus2=p6ulv16578.1.2 switch=n enabled=y phases=2 Linecode=1P_UG_AL_1/0_Brenau_2

New Line.l(r:p6udm17395-p6udt4941lv) Units=km Length=0.0367525 bus1=p6udt4941lv.1.2 bus2=p6udm17395.1.2 switch=n enabled=y phases=2 Linecode=1P_UG_AL_1/0_Brenau_2

New Line.l(r:p6udt4942lv-p6ulv16576) Units=km Length=0.0975975 bus1=p6udt4942lv.1.2 bus2=p6ulv16576.1.2 switch=n enabled=y phases=2 Linecode=1P_UG_AL_1/0_Brenau_2

New Line.l(r:p6udt4943lv-p6ulv16577) Units=km Length=0.0153693 bus1=p6udt4943lv.1.2 bus2=p6ulv16577.1.2 switch=n enabled=y phases=2 Linecode=1P_UG_AL_1/0_Brenau_2

New Line.l(r:p6udt4944lv-p6ulv16589) Units=km Length=0.018267200000000004 bus1=p6udt4944lv.1.2 bus2=p6ulv16589.1.2 switch=n enabled=y phases=2 Linecode=1P_UG_AL_1/0_Brenau_2

New Line.l(r:p6udm17398-p6ulv16579) Units=km Length=0.022264 bus1=p6udm17398.1.2 bus2=p6ulv16579.1.2 switch=n enabled=y phases=2 Linecode=1P_UG_AL_1/0_Brenau_2

New Line.l(r:p6udm17398-p6udt4944lv) Units=km Length=0.024981900000000005 bus1=p6udt4944lv.1.2 bus2=p6udm17398.1.2 switch=n enabled=y phases=2 Linecode=1P_UG_AL_1/0_Brenau_2

New Line.l(r:p6udm17400-p6ulv16593) Units=km Length=0.028973300000000004 bus1=p6udm17400.1.2 bus2=p6ulv16593.1.2 switch=n enabled=y phases=2 Linecode=1P_UG_AL_1/0_Brenau_2

New Line.l(r:p6udm17400-p6udt4944lv) Units=km Length=0.0164342 bus1=p6udt4944lv.1.2 bus2=p6udm17400.1.2 switch=n enabled=y phases=2 Linecode=1P_UG_AL_1/0_Brenau_2

New Line.l(r:p6udt4945lv-p6ulv16580) Units=km Length=0.06419160000000002 bus1=p6udt4945lv.1.2 bus2=p6ulv16580.1.2 switch=n enabled=y phases=2 Linecode=1P_UG_AL_1/0_Brenau_2

New Line.l(r:p6udt4946lv-p6ulv16581) Units=km Length=0.0520219 bus1=p6udt4946lv.1.2 bus2=p6ulv16581.1.2 switch=n enabled=y phases=2 Linecode=1P_UG_AL_1/0_Brenau_2

New Line.l(r:p6udt4948lv-p6ulv16586) Units=km Length=0.109318 bus1=p6udt4948lv.1.2 bus2=p6ulv16586.1.2 switch=n enabled=y phases=2 Linecode=1P_UG_AL_1/0_Brenau_2

New Line.l(r:p6udt4948lv-p6ulv16587) Units=km Length=0.0818682 bus1=p6udt4948lv.1.2 bus2=p6ulv16587.1.2 switch=n enabled=y phases=2 Linecode=1P_UG_AL_1/0_Brenau_2

New Line.l(r:p6udt4948lv-p6ulv16588) Units=km Length=0.0528324 bus1=p6udt4948lv.1.2 bus2=p6ulv16588.1.2 switch=n enabled=y phases=2 Linecode=1P_UG_AL_1/0_Brenau_2

New Line.l(r:p6udt4948lv-p6ulv16590) Units=km Length=0.0499539 bus1=p6udt4948lv.1.2 bus2=p6ulv16590.1.2 switch=n enabled=y phases=2 Linecode=1P_UG_AL_1/0_Brenau_2

New Line.l(r:p6udt4948lv-p6ulv16591) Units=km Length=0.0406978 bus1=p6udt4948lv.1.2 bus2=p6ulv16591.1.2 switch=n enabled=y phases=2 Linecode=1P_UG_AL_1/0_Brenau_2

New Line.l(r:p6udt4948lv-p6ulv16592) Units=km Length=0.0813076 bus1=p6udt4948lv.1.2 bus2=p6ulv16592.1.2 switch=n enabled=y phases=2 Linecode=1P_UG_AL_1/0_Brenau_2

New Line.l(r:p6udm17413-p6ulv16594) Units=km Length=0.0848049 bus1=p6udm17413.1.2 bus2=p6ulv16594.1.2 switch=n enabled=y phases=2 Linecode=1P_UG_AL_1/0_Brenau_2

New Line.l(r:p6udm17413-p6udt4949lv) Units=km Length=0.0175534 bus1=p6udt4949lv.1.2 bus2=p6udm17413.1.2 switch=n enabled=y phases=2 Linecode=1P_UG_AL_1/0_Brenau_2

New Line.l(r:p6udm17414-p6ulv16595) Units=km Length=0.065891 bus1=p6udm17414.1.2 bus2=p6ulv16595.1.2 switch=n enabled=y phases=2 Linecode=1P_UG_AL_1/0_Brenau_2

New Line.l(r:p6udm17414-p6udt4949lv) Units=km Length=0.00877442 bus1=p6udt4949lv.1.2 bus2=p6udm17414.1.2 switch=n enabled=y phases=2 Linecode=1P_UG_AL_1/0_Brenau_2

New Line.l(r:p6udt4950lv-p6ulv16611) Units=km Length=0.012315 bus1=p6udt4950lv.1.2 bus2=p6ulv16611.1.2 switch=n enabled=y phases=2 Linecode=1P_UG_AL_1/0_Brenau_2

New Line.l(r:p6udm17416-p6ulv16597) Units=km Length=0.0226741 bus1=p6udm17416.1.2 bus2=p6ulv16597.1.2 switch=n enabled=y phases=2 Linecode=1P_UG_AL_1/0_Brenau_2

New Line.l(r:p6udm17416-p6ulv16612) Units=km Length=0.011662100000000002 bus1=p6udm17416.1.2 bus2=p6ulv16612.1.2 switch=n enabled=y phases=2 Linecode=1P_UG_AL_1/0_Brenau_2

New Line.l(r:p6udm17415-p6ulv16596) Units=km Length=0.0162938 bus1=p6udm17415.1.2 bus2=p6ulv16596.1.2 switch=n enabled=y phases=2 Linecode=1P_UG_AL_1/0_Brenau_2

New Line.l(r:p6udm17424-p6ulv16613) Units=km Length=0.0158676 bus1=p6udm17424.1.2 bus2=p6ulv16613.1.2 switch=n enabled=y phases=2 Linecode=1P_UG_AL_1/0_Brenau_2

New Line.l(r:p6udm17415-p6udm17424) Units=km Length=0.00970062 bus1=p6udm17415.1.2 bus2=p6udm17424.1.2 switch=n enabled=y phases=2 Linecode=1P_UG_AL_1/0_Brenau_2

New Line.l(r:p6udm17415-p6udm17416) Units=km Length=0.0193912 bus1=p6udm17416.1.2 bus2=p6udm17415.1.2 switch=n enabled=y phases=2 Linecode=1P_UG_AL_1/0_Brenau_2

New Line.l(r:p6udm17416-p6udt4950lv) Units=km Length=0.0387825 bus1=p6udt4950lv.1.2 bus2=p6udm17416.1.2 switch=n enabled=y phases=2 Linecode=1P_UG_AL_1/0_Brenau_2

New Line.l(r:p6udm17417-p6ulv16598) Units=km Length=0.0149965 bus1=p6udm17417.1.2 bus2=p6ulv16598.1.2 switch=n enabled=y phases=2 Linecode=1P_UG_AL_1/0_Brenau_2

New Line.l(r:p6udm17418-p6ulv16599) Units=km Length=0.0192726 bus1=p6udm17418.1.2 bus2=p6ulv16599.1.2 switch=n enabled=y phases=2 Linecode=1P_UG_AL_1/0_Brenau_2

New Line.l(r:p6udm17417-p6udm17418) Units=km Length=0.00970062 bus1=p6udm17417.1.2 bus2=p6udm17418.1.2 switch=n enabled=y phases=2 Linecode=1P_UG_AL_1/0_Brenau_2

New Line.l(r:p6udm17419-p6ulv16600) Units=km Length=0.046345300000000006 bus1=p6udm17419.1.2 bus2=p6ulv16600.1.2 switch=n enabled=y phases=2 Linecode=1P_UG_AL_1/0_Brenau_2

New Line.l(r:p6udm17419-p6ulv16610) Units=km Length=0.0127744 bus1=p6udm17419.1.2 bus2=p6ulv16610.1.2 switch=n enabled=y phases=2 Linecode=1P_UG_AL_1/0_Brenau_2

New Line.l(r:p6udm17420-p6ulv16601) Units=km Length=0.0211577 bus1=p6udm17420.1.2 bus2=p6ulv16601.1.2 switch=n enabled=y phases=2 Linecode=1P_UG_AL_1/0_Brenau_2

New Line.l(r:p6udm17419-p6udm17420) Units=km Length=0.0193912 bus1=p6udm17419.1.2 bus2=p6udm17420.1.2 switch=n enabled=y phases=2 Linecode=1P_UG_AL_1/0_Brenau_2

New Line.l(r:p6udm17417-p6udm17419) Units=km Length=0.0290919 bus1=p6udm17417.1.2 bus2=p6udm17419.1.2 switch=n enabled=y phases=2 Linecode=1P_UG_AL_1/0_Brenau_2

New Line.l(r:p6udm17417-p6udt4950lv) Units=km Length=0.00969062 bus1=p6udt4950lv.1.2 bus2=p6udm17417.1.2 switch=n enabled=y phases=2 Linecode=1P_UG_AL_4/0_Sweetbriar_2

New Line.l(r:p6udt4951lv-p6ulv16603) Units=km Length=0.0166038 bus1=p6udt4951lv.1.2 bus2=p6ulv16603.1.2 switch=n enabled=y phases=2 Linecode=1P_UG_AL_1/0_Brenau_2

New Line.l(r:p6udm17425-p6ulv16602) Units=km Length=0.0281182 bus1=p6udm17425.1.2 bus2=p6ulv16602.1.2 switch=n enabled=y phases=2 Linecode=1P_UG_AL_1/0_Brenau_2

New Line.l(r:p6udm17425-p6udt4951lv) Units=km Length=0.027539200000000003 bus1=p6udt4951lv.1.2 bus2=p6udm17425.1.2 switch=n enabled=y phases=2 Linecode=1P_UG_AL_1/0_Brenau_2

New Line.l(r:p6udm17427-p6ulv16604) Units=km Length=0.0100153 bus1=p6udm17427.1.2 bus2=p6ulv16604.1.2 switch=n enabled=y phases=2 Linecode=1P_UG_AL_1/0_Brenau_2

New Line.l(r:p6udm17427-p6udt4951lv) Units=km Length=0.0677532 bus1=p6udt4951lv.1.2 bus2=p6udm17427.1.2 switch=n enabled=y phases=2 Linecode=1P_UG_AL_1/0_Brenau_2

New Line.l(r:p6udm17428-p6ulv16605) Units=km Length=0.0367713 bus1=p6udm17428.1.2 bus2=p6ulv16605.1.2 switch=n enabled=y phases=2 Linecode=1P_UG_AL_1/0_Brenau_2

New Line.l(r:p6udm17429-p6ulv16606) Units=km Length=0.014350700000000001 bus1=p6udm17429.1.2 bus2=p6ulv16606.1.2 switch=n enabled=y phases=2 Linecode=1P_UG_AL_1/0_Brenau_2

New Line.l(r:p6udm17428-p6udm17429) Units=km Length=0.00788914 bus1=p6udm17428.1.2 bus2=p6udm17429.1.2 switch=n enabled=y phases=2 Linecode=1P_UG_AL_1/0_Brenau_2

New Line.l(r:p6udm17428-p6udt4952lv) Units=km Length=0.00790317 bus1=p6udt4952lv.1.2 bus2=p6udm17428.1.2 switch=n enabled=y phases=2 Linecode=1P_UG_AL_1/0_Brenau_2

New Line.l(r:p6udm17430-p6ulv16607) Units=km Length=0.0467511 bus1=p6udm17430.1.2 bus2=p6ulv16607.1.2 switch=n enabled=y phases=2 Linecode=1P_UG_AL_1/0_Brenau_2

New Line.l(r:p6udm17430-p6udt4952lv) Units=km Length=0.0160101 bus1=p6udt4952lv.1.2 bus2=p6udm17430.1.2 switch=n enabled=y phases=2 Linecode=1P_UG_AL_1/0_Brenau_2

New Line.l(r:p6udt4953lv-p6ulv16608) Units=km Length=0.0962188 bus1=p6udt4953lv.1.2 bus2=p6ulv16608.1.2 switch=n enabled=y phases=2 Linecode=1P_UG_AL_1/0_Brenau_2

New Line.l(r:p6udt4954lv-p6ulv16609) Units=km Length=0.00374414 bus1=p6udt4954lv.1.2 bus2=p6ulv16609.1.2 switch=n enabled=y phases=2 Linecode=1P_UG_AL_1/0_Brenau_2

New Line.l(r:p6udm17634-p6ulv16814) Units=km Length=0.0060782 bus1=p6udm17634.1.2 bus2=p6ulv16814.1.2 switch=n enabled=y phases=2 Linecode=1P_UG_AL_1/0_Brenau_2

New Line.l(r:p6udm17634-p6udt4996lv) Units=km Length=0.053011 bus1=p6udt4996lv.1.2 bus2=p6udm17634.1.2 switch=n enabled=y phases=2 Linecode=1P_UG_AL_1/0_Brenau_2

New Line.l(r:p6udm17635-p6ulv16815) Units=km Length=0.0189097 bus1=p6udm17635.1.2 bus2=p6ulv16815.1.2 switch=n enabled=y phases=2 Linecode=1P_UG_AL_1/0_Brenau_2

New Line.l(r:p6udm17635-p6ulv16816) Units=km Length=0.04102200000000001 bus1=p6udm17635.1.2 bus2=p6ulv16816.1.2 switch=n enabled=y phases=2 Linecode=1P_UG_AL_1/0_Brenau_2

New Line.l(r:p6udm17635-p6udt4996lv) Units=km Length=0.0366702 bus1=p6udt4996lv.1.2 bus2=p6udm17635.1.2 switch=n enabled=y phases=2 Linecode=1P_UG_AL_1/0_Brenau_2

New Line.l(r:p6udt4997lv-p6ulv16817) Units=km Length=0.0446569 bus1=p6udt4997lv.1.2 bus2=p6ulv16817.1.2 switch=n enabled=y phases=2 Linecode=1P_UG_AL_1/0_Brenau_2

New Line.l(r:p6udt4998lv-p6ulv16821) Units=km Length=0.0488978 bus1=p6udt4998lv.1.2 bus2=p6ulv16821.1.2 switch=n enabled=y phases=2 Linecode=1P_UG_AL_1/0_Brenau_2

New Line.l(r:p6udm17639-p6ulv16819) Units=km Length=0.0124202 bus1=p6udm17639.1.2 bus2=p6ulv16819.1.2 switch=n enabled=y phases=2 Linecode=1P_UG_AL_1/0_Brenau_2

New Line.l(r:p6udm17638-p6ulv16818) Units=km Length=0.0268452 bus1=p6udm17638.1.2 bus2=p6ulv16818.1.2 switch=n enabled=y phases=2 Linecode=1P_UG_AL_1/0_Brenau_2

New Line.l(r:p6udm17638-p6udm17639) Units=km Length=0.0165311 bus1=p6udm17639.1.2 bus2=p6udm17638.1.2 switch=n enabled=y phases=2 Linecode=1P_UG_AL_1/0_Brenau_2

New Line.l(r:p6udm17639-p6udt4998lv) Units=km Length=0.016140700000000004 bus1=p6udt4998lv.1.2 bus2=p6udm17639.1.2 switch=n enabled=y phases=2 Linecode=1P_UG_AL_1/0_Brenau_2

New Line.l(r:p6udm17641-p6ulv17770) Units=km Length=0.0707808 bus1=p6udm17641.1.2 bus2=p6ulv17770.1.2 switch=n enabled=y phases=2 Linecode=1P_UG_AL_1/0_Brenau_2

New Line.l(r:p6udm17641-p6udt4998lv) Units=km Length=0.0284392 bus1=p6udt4998lv.1.2 bus2=p6udm17641.1.2 switch=n enabled=y phases=2 Linecode=1P_UG_AL_1/0_Brenau_2

New Line.l(r:p6udm17642-p6ulv16820) Units=km Length=0.08594270000000001 bus1=p6udm17642.1.2 bus2=p6ulv16820.1.2 switch=n enabled=y phases=2 Linecode=1P_UG_AL_1/0_Brenau_2

New Line.l(r:p6udm17645-p6ulv16824) Units=km Length=0.004466430000000001 bus1=p6udm17645.1.2 bus2=p6ulv16824.1.2 switch=n enabled=y phases=2 Linecode=1P_UG_AL_1/0_Brenau_2

New Line.l(r:p6udm17642-p6udm17645) Units=km Length=0.008412640000000002 bus1=p6udm17642.1.2 bus2=p6udm17645.1.2 switch=n enabled=y phases=2 Linecode=1P_UG_AL_1/0_Brenau_2

New Line.l(r:p6udm17642-p6udt4999lv) Units=km Length=0.0240605 bus1=p6udt4999lv.1.2 bus2=p6udm17642.1.2 switch=n enabled=y phases=2 Linecode=1P_UG_AL_1/0_Brenau_2

New Line.l(r:p6udm17643-p6ulv16822) Units=km Length=0.0567498 bus1=p6udm17643.1.2 bus2=p6ulv16822.1.2 switch=n enabled=y phases=2 Linecode=1P_UG_AL_1/0_Brenau_2

New Line.l(r:p6udm17644-p6ulv16823) Units=km Length=0.0110221 bus1=p6udm17644.1.2 bus2=p6ulv16823.1.2 switch=n enabled=y phases=2 Linecode=1P_UG_AL_1/0_Brenau_2

New Line.l(r:p6udm17643-p6udm17644) Units=km Length=0.0304478 bus1=p6udm17643.1.2 bus2=p6udm17644.1.2 switch=n enabled=y phases=2 Linecode=1P_UG_AL_1/0_Brenau_2

New Line.l(r:p6udm17643-p6udt4999lv) Units=km Length=0.00801016 bus1=p6udt4999lv.1.2 bus2=p6udm17643.1.2 switch=n enabled=y phases=2 Linecode=1P_UG_AL_1/0_Brenau_2

New Line.l(r:p6udm17647-p6ulv17771) Units=km Length=0.00960403 bus1=p6udm17647.1.2 bus2=p6ulv17771.1.2 switch=n enabled=y phases=2 Linecode=1P_UG_AL_1/0_Brenau_2

New Line.l(r:p6udm17648-p6ulv17772) Units=km Length=0.0143756 bus1=p6udm17648.1.2 bus2=p6ulv17772.1.2 switch=n enabled=y phases=2 Linecode=1P_UG_AL_1/0_Brenau_2

New Line.l(r:p6udm17646-p6ulv16825) Units=km Length=0.0645647 bus1=p6udm17646.1.2 bus2=p6ulv16825.1.2 switch=n enabled=y phases=2 Linecode=1P_UG_AL_1/0_Brenau_2

New Line.l(r:p6udm17646-p6udm17648) Units=km Length=0.0257546 bus1=p6udm17648.1.2 bus2=p6udm17646.1.2 switch=n enabled=y phases=2 Linecode=1P_UG_AL_1/0_Brenau_2

New Line.l(r:p6udm17647-p6udm17648) Units=km Length=0.00982988 bus1=p6udm17647.1.2 bus2=p6udm17648.1.2 switch=n enabled=y phases=2 Linecode=1P_UG_AL_1/0_Brenau_2

New Line.l(r:p6udm17647-p6udt5000lv) Units=km Length=0.00516387 bus1=p6udt5000lv.1.2 bus2=p6udm17647.1.2 switch=n enabled=y phases=2 Linecode=1P_UG_AL_1/0_Brenau_2

New Line.l(r:p6udm17649-p6ulv26812) Units=km Length=0.127927 bus1=p6udm17649.1.2 bus2=p6ulv26812.1.2 switch=n enabled=y phases=2 Linecode=1P_UG_AL_1/0_Brenau_2

New Line.l(r:p6udm17649-p6ulv26813) Units=km Length=0.110236 bus1=p6udm17649.1.2 bus2=p6ulv26813.1.2 switch=n enabled=y phases=2 Linecode=1P_UG_AL_1/0_Brenau_2

New Line.l(r:p6udm17649-p6udt5000lv) Units=km Length=0.0051635 bus1=p6udt5000lv.1.2 bus2=p6udm17649.1.2 switch=n enabled=y phases=2 Linecode=1P_UG_AL_1/0_Brenau_2

New Line.l(r:p6udt5001lv-p6ulv16826) Units=km Length=0.03636000000000001 bus1=p6udt5001lv.1.2 bus2=p6ulv16826.1.2 switch=n enabled=y phases=2 Linecode=1P_UG_AL_1/0_Brenau_2

New Line.l(r:p6udm17652-p6ulv16827) Units=km Length=0.0158542 bus1=p6udm17652.1.2 bus2=p6ulv16827.1.2 switch=n enabled=y phases=2 Linecode=1P_UG_AL_4/0_Sweetbriar_2

New Line.l(r:p6udm17652-p6udt5001lv) Units=km Length=0.009940990000000002 bus1=p6udt5001lv.1.2 bus2=p6udm17652.1.2 switch=n enabled=y phases=2 Linecode=1P_UG_AL_4/0_Sweetbriar_2

New Line.l(r:p6udt5002lv-p6ulv16828) Units=km Length=0.0742567 bus1=p6udt5002lv.1.2 bus2=p6ulv16828.1.2 switch=n enabled=y phases=2 Linecode=1P_UG_AL_1/0_Brenau_2

New Line.l(r:p6udt5003lv-p6ulv16829) Units=km Length=0.017099 bus1=p6udt5003lv.1.2 bus2=p6ulv16829.1.2 switch=n enabled=y phases=2 Linecode=1P_UG_AL_1/0_Brenau_2

New Line.l(r:p6udt5004lv-p6ulv16830) Units=km Length=0.007545420000000001 bus1=p6udt5004lv.1.2 bus2=p6ulv16830.1.2 switch=n enabled=y phases=2 Linecode=1P_UG_AL_1/0_Brenau_2

New Line.l(r:p6udt5004lv-p6ulv16831) Units=km Length=0.0165853 bus1=p6udt5004lv.1.2 bus2=p6ulv16831.1.2 switch=n enabled=y phases=2 Linecode=1P_UG_AL_1/0_Brenau_2

New Line.l(r:p6udt5005lv-p6ulv16834) Units=km Length=0.0436248 bus1=p6udt5005lv.1.2 bus2=p6ulv16834.1.2 switch=n enabled=y phases=2 Linecode=1P_UG_AL_1/0_Brenau_2

New Line.l(r:p6udt5005lv-p6ulv16835) Units=km Length=0.0444466 bus1=p6udt5005lv.1.2 bus2=p6ulv16835.1.2 switch=n enabled=y phases=2 Linecode=1P_UG_AL_1/0_Brenau_2

New Line.l(r:p6udm17657-p6ulv16832) Units=km Length=0.00844787 bus1=p6udm17657.1.2 bus2=p6ulv16832.1.2 switch=n enabled=y phases=2 Linecode=1P_UG_AL_1/0_Brenau_2

New Line.l(r:p6udm17657-p6udt5005lv) Units=km Length=0.0192783 bus1=p6udt5005lv.1.2 bus2=p6udm17657.1.2 switch=n enabled=y phases=2 Linecode=1P_UG_AL_1/0_Brenau_2

New Line.l(r:p6udm17658-p6ulv16833) Units=km Length=0.0092634 bus1=p6udm17658.1.2 bus2=p6ulv16833.1.2 switch=n enabled=y phases=2 Linecode=1P_UG_AL_1/0_Brenau_2

New Line.l(r:p6udm17658-p6udt5005lv) Units=km Length=0.00964247 bus1=p6udt5005lv.1.2 bus2=p6udm17658.1.2 switch=n enabled=y phases=2 Linecode=1P_UG_AL_1/0_Brenau_2

New Line.l(r:p6udm17661-p6ulv16836) Units=km Length=0.0214041 bus1=p6udm17661.1.2 bus2=p6ulv16836.1.2 switch=n enabled=y phases=2 Linecode=1P_UG_AL_1/0_Brenau_2

New Line.l(r:p6udm17661-p6udt5006lv) Units=km Length=0.049719 bus1=p6udt5006lv.1.2 bus2=p6udm17661.1.2 switch=n enabled=y phases=2 Linecode=1P_UG_AL_1/0_Brenau_2

New Line.l(r:p6udm17662-p6ulv16837) Units=km Length=0.0369577 bus1=p6udm17662.1.2 bus2=p6ulv16837.1.2 switch=n enabled=y phases=2 Linecode=1P_UG_AL_1/0_Brenau_2

New Line.l(r:p6udm17663-p6ulv16838) Units=km Length=0.0356926 bus1=p6udm17663.1.2 bus2=p6ulv16838.1.2 switch=n enabled=y phases=2 Linecode=1P_UG_AL_1/0_Brenau_2

New Line.l(r:p6udm17662-p6udm17663) Units=km Length=0.018482 bus1=p6udm17662.1.2 bus2=p6udm17663.1.2 switch=n enabled=y phases=2 Linecode=1P_UG_AL_1/0_Brenau_2

New Line.l(r:p6udm17662-p6udt5006lv) Units=km Length=0.017805 bus1=p6udt5006lv.1.2 bus2=p6udm17662.1.2 switch=n enabled=y phases=2 Linecode=1P_UG_AL_1/0_Brenau_2

New Line.l(r:p6udt5007lv-p6ulv16839) Units=km Length=0.0325669 bus1=p6udt5007lv.1.2 bus2=p6ulv16839.1.2 switch=n enabled=y phases=2 Linecode=1P_UG_AL_1/0_Brenau_2

New Line.l(r:p6udm17666-p6ulv16841) Units=km Length=0.037513 bus1=p6udm17666.1.2 bus2=p6ulv16841.1.2 switch=n enabled=y phases=2 Linecode=1P_UG_AL_1/0_Brenau_2

New Line.l(r:p6udm17665-p6ulv16840) Units=km Length=0.0334004 bus1=p6udm17665.1.2 bus2=p6ulv16840.1.2 switch=n enabled=y phases=2 Linecode=1P_UG_AL_1/0_Brenau_2

New Line.l(r:p6udm17665-p6udm17666) Units=km Length=0.0355199 bus1=p6udm17666.1.2 bus2=p6udm17665.1.2 switch=n enabled=y phases=2 Linecode=1P_UG_AL_1/0_Brenau_2

New Line.l(r:p6udm17666-p6udt5008lv) Units=km Length=0.00777659 bus1=p6udt5008lv.1.2 bus2=p6udm17666.1.2 switch=n enabled=y phases=2 Linecode=1P_UG_AL_1/0_Brenau_2

New Line.l(r:p6udm17667-p6ulv16842) Units=km Length=0.00668079 bus1=p6udm17667.1.2 bus2=p6ulv16842.1.2 switch=n enabled=y phases=2 Linecode=1P_UG_AL_1/0_Brenau_2

New Line.l(r:p6udm17667-p6udt5008lv) Units=km Length=0.0482345 bus1=p6udt5008lv.1.2 bus2=p6udm17667.1.2 switch=n enabled=y phases=2 Linecode=1P_UG_AL_1/0_Brenau_2

New Line.l(r:p6udt5009lv-p6ulv16843) Units=km Length=0.0218569 bus1=p6udt5009lv.1.2 bus2=p6ulv16843.1.2 switch=n enabled=y phases=2 Linecode=1P_UG_AL_1/0_Brenau_2
