New Load.load_p6ulv13783_1 conn=wye bus1=p6ulv13783.1 kV=0.12 Vminpu=0.8 Vmaxpu=1.2 model=1 kW=1.465015 kvar=0.2997758712202973 Phases=1

New Load.load_p6ulv13783_2 conn=wye bus1=p6ulv13783.2 kV=0.12 Vminpu=0.8 Vmaxpu=1.2 model=1 kW=1.465015 kvar=0.2997758712202973 Phases=1

New Load.load_p6ulv13784_1 conn=wye bus1=p6ulv13784.1 kV=0.12 Vminpu=0.8 Vmaxpu=1.2 model=1 kW=1.330015 kvar=0.2700710645231352 Phases=1

New Load.load_p6ulv13784_2 conn=wye bus1=p6ulv13784.2 kV=0.12 Vminpu=0.8 Vmaxpu=1.2 model=1 kW=1.330015 kvar=0.2700710645231352 Phases=1

New Load.load_p6ulv13785_1 conn=wye bus1=p6ulv13785.1 kV=0.12 Vminpu=0.8 Vmaxpu=1.2 model=1 kW=0.6600050000000001 kvar=0.13505225126346992 Phases=1

New Load.load_p6ulv13785_2 conn=wye bus1=p6ulv13785.2 kV=0.12 Vminpu=0.8 Vmaxpu=1.2 model=1 kW=0.6600050000000001 kvar=0.13505225126346992 Phases=1

New Load.load_p6ulv13786_1 conn=wye bus1=p6ulv13785.1 kV=0.12 Vminpu=0.8 Vmaxpu=1.2 model=1 kW=0.375004 kvar=0.07496236221505388 Phases=1

New Load.load_p6ulv13786_2 conn=wye bus1=p6ulv13785.2 kV=0.12 Vminpu=0.8 Vmaxpu=1.2 model=1 kW=0.375004 kvar=0.07496236221505388 Phases=1

New Load.load_p6ulv13787_1 conn=wye bus1=p6ulv13787.1 kV=0.12 Vminpu=0.8 Vmaxpu=1.2 model=1 kW=0.585005 kvar=0.12000921855100456 Phases=1

New Load.load_p6ulv13787_2 conn=wye bus1=p6ulv13787.2 kV=0.12 Vminpu=0.8 Vmaxpu=1.2 model=1 kW=0.585005 kvar=0.12000921855100456 Phases=1

New Load.load_p6ulv13788_1 conn=wye bus1=p6ulv13788.1 kV=0.12 Vminpu=0.8 Vmaxpu=1.2 model=1 kW=0.82001 kvar=0.16478601089290207 Phases=1

New Load.load_p6ulv13788_2 conn=wye bus1=p6ulv13788.2 kV=0.12 Vminpu=0.8 Vmaxpu=1.2 model=1 kW=0.82001 kvar=0.16478601089290207 Phases=1

New Load.load_p6ulv13789_1 conn=wye bus1=p6ulv13789.1 kV=0.12 Vminpu=0.8 Vmaxpu=1.2 model=1 kW=0.85501 kvar=0.17495477360441117 Phases=1

New Load.load_p6ulv13789_2 conn=wye bus1=p6ulv13789.2 kV=0.12 Vminpu=0.8 Vmaxpu=1.2 model=1 kW=0.85501 kvar=0.17495477360441117 Phases=1

New Load.load_p6ulv13790_1 conn=wye bus1=p6ulv13790.1 kV=0.12 Vminpu=0.8 Vmaxpu=1.2 model=1 kW=0.4700045 kvar=0.09494551206520921 Phases=1

New Load.load_p6ulv13790_2 conn=wye bus1=p6ulv13790.2 kV=0.12 Vminpu=0.8 Vmaxpu=1.2 model=1 kW=0.4700045 kvar=0.09494551206520921 Phases=1

New Load.load_p6ulv13791_1 conn=wye bus1=p6ulv13791.1 kV=0.12 Vminpu=0.8 Vmaxpu=1.2 model=1 kW=0.685005 kvar=0.14016782808726178 Phases=1

New Load.load_p6ulv13791_2 conn=wye bus1=p6ulv13791.2 kV=0.12 Vminpu=0.8 Vmaxpu=1.2 model=1 kW=0.685005 kvar=0.14016782808726178 Phases=1

New Load.load_p6ulv13792_1 conn=wye bus1=p6ulv13792.1 kV=0.12 Vminpu=0.8 Vmaxpu=1.2 model=1 kW=0.550005 kvar=0.10994462467091208 Phases=1

New Load.load_p6ulv13792_2 conn=wye bus1=p6ulv13792.2 kV=0.12 Vminpu=0.8 Vmaxpu=1.2 model=1 kW=0.550005 kvar=0.10994462467091208 Phases=1

New Load.load_p6ulv13793_1 conn=wye bus1=p6ulv13793.1 kV=0.12 Vminpu=0.8 Vmaxpu=1.2 model=1 kW=1.8750200000000001 kvar=0.37975684917974134 Phases=1

New Load.load_p6ulv13793_2 conn=wye bus1=p6ulv13793.2 kV=0.12 Vminpu=0.8 Vmaxpu=1.2 model=1 kW=1.8750200000000001 kvar=0.37975684917974134 Phases=1

New Load.load_p6ulv13794_1 conn=wye bus1=p6ulv13794.1 kV=0.12 Vminpu=0.8 Vmaxpu=1.2 model=1 kW=2.7100250000000004 kvar=0.5502940467846674 Phases=1

New Load.load_p6ulv13794_2 conn=wye bus1=p6ulv13794.2 kV=0.12 Vminpu=0.8 Vmaxpu=1.2 model=1 kW=2.7100250000000004 kvar=0.5502940467846674 Phases=1

New Load.load_p6ulv13795_1 conn=wye bus1=p6ulv13795.1 kV=0.12 Vminpu=0.8 Vmaxpu=1.2 model=1 kW=7.6801 kvar=1.5595108195352163 Phases=1

New Load.load_p6ulv13795_2 conn=wye bus1=p6ulv13795.2 kV=0.12 Vminpu=0.8 Vmaxpu=1.2 model=1 kW=7.6801 kvar=1.5595108195352163 Phases=1

New Load.load_p6ulv13797_1 conn=wye bus1=p6ulv13797.1 kV=0.12 Vminpu=0.8 Vmaxpu=1.2 model=1 kW=1.11501 kvar=0.22524294003106118 Phases=1

New Load.load_p6ulv13797_2 conn=wye bus1=p6ulv13797.2 kV=0.12 Vminpu=0.8 Vmaxpu=1.2 model=1 kW=1.11501 kvar=0.22524294003106118 Phases=1

New Load.load_p6ulv13798_1 conn=wye bus1=p6ulv13798.1 kV=0.12 Vminpu=0.8 Vmaxpu=1.2 model=1 kW=0.535005 kvar=0.11002923262326189 Phases=1

New Load.load_p6ulv13798_2 conn=wye bus1=p6ulv13798.2 kV=0.12 Vminpu=0.8 Vmaxpu=1.2 model=1 kW=0.535005 kvar=0.11002923262326189 Phases=1

New Load.load_p6ulv13799_1 conn=wye bus1=p6ulv13799.1 kV=0.12 Vminpu=0.8 Vmaxpu=1.2 model=1 kW=0.695005 kvar=0.14003207787879351 Phases=1

New Load.load_p6ulv13799_2 conn=wye bus1=p6ulv13799.2 kV=0.12 Vminpu=0.8 Vmaxpu=1.2 model=1 kW=0.695005 kvar=0.14003207787879351 Phases=1

New Load.load_p6ulv13800_1 conn=wye bus1=p6ulv13800.1 kV=0.12 Vminpu=0.8 Vmaxpu=1.2 model=1 kW=0.8650100000000001 kvar=0.175194649715186 Phases=1

New Load.load_p6ulv13800_2 conn=wye bus1=p6ulv13800.2 kV=0.12 Vminpu=0.8 Vmaxpu=1.2 model=1 kW=0.8650100000000001 kvar=0.175194649715186 Phases=1

New Load.load_p6ulv13801_1 conn=wye bus1=p6ulv13801.1 kV=0.12 Vminpu=0.8 Vmaxpu=1.2 model=1 kW=0.480005 kvar=0.09492831937299649 Phases=1

New Load.load_p6ulv13801_2 conn=wye bus1=p6ulv13801.2 kV=0.12 Vminpu=0.8 Vmaxpu=1.2 model=1 kW=0.480005 kvar=0.09492831937299649 Phases=1

New Load.load_p6ulv14405_1 conn=wye bus1=p6ulv14405.1 kV=0.12 Vminpu=0.8 Vmaxpu=1.2 model=1 kW=0.545005 kvar=0.11009634759475566 Phases=1

New Load.load_p6ulv14405_2 conn=wye bus1=p6ulv14405.2 kV=0.12 Vminpu=0.8 Vmaxpu=1.2 model=1 kW=0.545005 kvar=0.11009634759475566 Phases=1

New Load.load_p6ulv14406_1 conn=wye bus1=p6ulv14406.1 kV=0.12 Vminpu=0.8 Vmaxpu=1.2 model=1 kW=0.290003 kvar=0.05994151579317487 Phases=1

New Load.load_p6ulv14406_2 conn=wye bus1=p6ulv14406.2 kV=0.12 Vminpu=0.8 Vmaxpu=1.2 model=1 kW=0.290003 kvar=0.05994151579317487 Phases=1

New Load.load_p6ulv14407_1 conn=wye bus1=p6ulv14407.1 kV=0.12 Vminpu=0.8 Vmaxpu=1.2 model=1 kW=1.86002 kvar=0.37963524364068607 Phases=1

New Load.load_p6ulv14407_2 conn=wye bus1=p6ulv14407.2 kV=0.12 Vminpu=0.8 Vmaxpu=1.2 model=1 kW=1.86002 kvar=0.37963524364068607 Phases=1

New Load.load_p6ulv14408_1 conn=wye bus1=p6ulv14408.1 kV=0.12 Vminpu=0.8 Vmaxpu=1.2 model=1 kW=0.83001 kvar=0.16983919678061932 Phases=1

New Load.load_p6ulv14408_2 conn=wye bus1=p6ulv14408.2 kV=0.12 Vminpu=0.8 Vmaxpu=1.2 model=1 kW=0.83001 kvar=0.16983919678061932 Phases=1

New Load.load_p6ulv14409_1 conn=wye bus1=p6ulv14409.1 kV=0.12 Vminpu=0.8 Vmaxpu=1.2 model=1 kW=0.5300050000000001 kvar=0.10510011513410371 Phases=1

New Load.load_p6ulv14409_2 conn=wye bus1=p6ulv14409.2 kV=0.12 Vminpu=0.8 Vmaxpu=1.2 model=1 kW=0.5300050000000001 kvar=0.10510011513410371 Phases=1

New Load.load_p6ulv14410_1 conn=wye bus1=p6ulv14410.1 kV=0.12 Vminpu=0.8 Vmaxpu=1.2 model=1 kW=0.610005 kvar=0.12513777380057528 Phases=1

New Load.load_p6ulv14410_2 conn=wye bus1=p6ulv14410.2 kV=0.12 Vminpu=0.8 Vmaxpu=1.2 model=1 kW=0.610005 kvar=0.12513777380057528 Phases=1

New Load.load_p6ulv14411_1 conn=wye bus1=p6ulv14411.1 kV=0.12 Vminpu=0.8 Vmaxpu=1.2 model=1 kW=0.705005 kvar=0.1449914657723998 Phases=1

New Load.load_p6ulv14411_2 conn=wye bus1=p6ulv14411.2 kV=0.12 Vminpu=0.8 Vmaxpu=1.2 model=1 kW=0.705005 kvar=0.1449914657723998 Phases=1

New Load.load_p6ulv14412_1 conn=wye bus1=p6ulv14412.1 kV=0.12 Vminpu=0.8 Vmaxpu=1.2 model=1 kW=0.410004 kvar=0.08495583202151072 Phases=1

New Load.load_p6ulv14412_2 conn=wye bus1=p6ulv14412.2 kV=0.12 Vminpu=0.8 Vmaxpu=1.2 model=1 kW=0.410004 kvar=0.08495583202151072 Phases=1

New Load.load_p6ulv14413_1 conn=wye bus1=p6ulv14413.1 kV=0.12 Vminpu=0.8 Vmaxpu=1.2 model=1 kW=0.3450035 kvar=0.07005594862404371 Phases=1

New Load.load_p6ulv14413_2 conn=wye bus1=p6ulv14413.2 kV=0.12 Vminpu=0.8 Vmaxpu=1.2 model=1 kW=0.3450035 kvar=0.07005594862404371 Phases=1

New Load.load_p6ulv14414_1 conn=wye bus1=p6ulv14414.1 kV=0.12 Vminpu=0.8 Vmaxpu=1.2 model=1 kW=0.580005 kvar=0.19002026216842752 Phases=1

New Load.load_p6ulv14414_2 conn=wye bus1=p6ulv14414.2 kV=0.12 Vminpu=0.8 Vmaxpu=1.2 model=1 kW=0.580005 kvar=0.19002026216842752 Phases=1

New Load.load_p6ulv14415_1 conn=wye bus1=p6ulv14415.1 kV=0.12 Vminpu=0.8 Vmaxpu=1.2 model=1 kW=0.620005 kvar=0.20510285407361964 Phases=1

New Load.load_p6ulv14415_2 conn=wye bus1=p6ulv14415.2 kV=0.12 Vminpu=0.8 Vmaxpu=1.2 model=1 kW=0.620005 kvar=0.20510285407361964 Phases=1

New Load.load_p6ulv14574_1 conn=wye bus1=p6ulv14574.1 kV=0.12 Vminpu=0.8 Vmaxpu=1.2 model=1 kW=0.77001 kvar=0.15514435189307957 Phases=1

New Load.load_p6ulv14574_2 conn=wye bus1=p6ulv14574.2 kV=0.12 Vminpu=0.8 Vmaxpu=1.2 model=1 kW=0.77001 kvar=0.15514435189307957 Phases=1

New Load.load_p6ulv14575_1 conn=wye bus1=p6ulv14575.1 kV=0.12 Vminpu=0.8 Vmaxpu=1.2 model=1 kW=1.80502 kvar=0.36463171775577446 Phases=1

New Load.load_p6ulv14575_2 conn=wye bus1=p6ulv14575.2 kV=0.12 Vminpu=0.8 Vmaxpu=1.2 model=1 kW=1.80502 kvar=0.36463171775577446 Phases=1

New Load.load_p6ulv14576_1 conn=wye bus1=p6ulv14576.1 kV=0.12 Vminpu=0.8 Vmaxpu=1.2 model=1 kW=0.605005 kvar=0.12505014348972168 Phases=1

New Load.load_p6ulv14576_2 conn=wye bus1=p6ulv14576.2 kV=0.12 Vminpu=0.8 Vmaxpu=1.2 model=1 kW=0.605005 kvar=0.12505014348972168 Phases=1

New Load.load_p6ulv14577_1 conn=wye bus1=p6ulv14577.1 kV=0.12 Vminpu=0.8 Vmaxpu=1.2 model=1 kW=0.4300045 kvar=0.0850399568917525 Phases=1

New Load.load_p6ulv14577_2 conn=wye bus1=p6ulv14577.2 kV=0.12 Vminpu=0.8 Vmaxpu=1.2 model=1 kW=0.4300045 kvar=0.0850399568917525 Phases=1

New Load.load_p6ulv14578_1 conn=wye bus1=p6ulv14578.1 kV=0.12 Vminpu=0.8 Vmaxpu=1.2 model=1 kW=0.4250045 kvar=0.08495733718047772 Phases=1

New Load.load_p6ulv14578_2 conn=wye bus1=p6ulv14578.2 kV=0.12 Vminpu=0.8 Vmaxpu=1.2 model=1 kW=0.4250045 kvar=0.08495733718047772 Phases=1

New Load.load_p6ulv14579_1 conn=wye bus1=p6ulv14579.1 kV=0.12 Vminpu=0.8 Vmaxpu=1.2 model=1 kW=1.09001 kvar=0.22019269518951132 Phases=1

New Load.load_p6ulv14579_2 conn=wye bus1=p6ulv14579.2 kV=0.12 Vminpu=0.8 Vmaxpu=1.2 model=1 kW=1.09001 kvar=0.22019269518951132 Phases=1

New Load.load_p6ulv14580_1 conn=wye bus1=p6ulv14580.1 kV=0.12 Vminpu=0.8 Vmaxpu=1.2 model=1 kW=0.715005 kvar=0.14518795764661624 Phases=1

New Load.load_p6ulv14580_2 conn=wye bus1=p6ulv14580.2 kV=0.12 Vminpu=0.8 Vmaxpu=1.2 model=1 kW=0.715005 kvar=0.14518795764661624 Phases=1

New Load.load_p6ulv14581_1 conn=wye bus1=p6ulv14581.1 kV=0.12 Vminpu=0.8 Vmaxpu=1.2 model=1 kW=1.565015 kvar=0.31532478523389046 Phases=1

New Load.load_p6ulv14581_2 conn=wye bus1=p6ulv14581.2 kV=0.12 Vminpu=0.8 Vmaxpu=1.2 model=1 kW=1.565015 kvar=0.31532478523389046 Phases=1

New Load.load_p6ulv14582_1 conn=wye bus1=p6ulv14582.1 kV=0.12 Vminpu=0.8 Vmaxpu=1.2 model=1 kW=0.705005 kvar=0.1449914657723998 Phases=1

New Load.load_p6ulv14582_2 conn=wye bus1=p6ulv14582.2 kV=0.12 Vminpu=0.8 Vmaxpu=1.2 model=1 kW=0.705005 kvar=0.1449914657723998 Phases=1

New Load.load_p6ulv14583_1 conn=wye bus1=p6ulv14583.1 kV=0.12 Vminpu=0.8 Vmaxpu=1.2 model=1 kW=0.490005 kvar=0.10001138028631647 Phases=1

New Load.load_p6ulv14583_2 conn=wye bus1=p6ulv14583.2 kV=0.12 Vminpu=0.8 Vmaxpu=1.2 model=1 kW=0.490005 kvar=0.10001138028631647 Phases=1

New Load.load_p6ulv14584_1 conn=wye bus1=p6ulv14584.1 kV=0.12 Vminpu=0.8 Vmaxpu=1.2 model=1 kW=0.88501 kvar=0.18017149277293337 Phases=1

New Load.load_p6ulv14584_2 conn=wye bus1=p6ulv14584.2 kV=0.12 Vminpu=0.8 Vmaxpu=1.2 model=1 kW=0.88501 kvar=0.18017149277293337 Phases=1

New Load.load_p6ulv14585_1 conn=wye bus1=p6ulv14585.1 kV=0.12 Vminpu=0.8 Vmaxpu=1.2 model=1 kW=1.300015 kvar=0.26533666910116366 Phases=1

New Load.load_p6ulv14585_2 conn=wye bus1=p6ulv14585.2 kV=0.12 Vminpu=0.8 Vmaxpu=1.2 model=1 kW=1.300015 kvar=0.26533666910116366 Phases=1

New Load.load_p6ulv14586_1 conn=wye bus1=p6ulv14586.1 kV=0.12 Vminpu=0.8 Vmaxpu=1.2 model=1 kW=0.560005 kvar=0.11488066330143384 Phases=1

New Load.load_p6ulv14586_2 conn=wye bus1=p6ulv14586.2 kV=0.12 Vminpu=0.8 Vmaxpu=1.2 model=1 kW=0.560005 kvar=0.11488066330143384 Phases=1

New Load.load_p6ulv14587_1 conn=wye bus1=p6ulv14587.1 kV=0.12 Vminpu=0.8 Vmaxpu=1.2 model=1 kW=2.665025 kvar=0.5397603742814691 Phases=1

New Load.load_p6ulv14587_2 conn=wye bus1=p6ulv14587.2 kV=0.12 Vminpu=0.8 Vmaxpu=1.2 model=1 kW=2.665025 kvar=0.5397603742814691 Phases=1

New Load.load_p6ulv14588_1 conn=wye bus1=p6ulv14588.1 kV=0.12 Vminpu=0.8 Vmaxpu=1.2 model=1 kW=1.09501 kvar=0.22004893816884757 Phases=1

New Load.load_p6ulv14588_2 conn=wye bus1=p6ulv14588.2 kV=0.12 Vminpu=0.8 Vmaxpu=1.2 model=1 kW=1.09501 kvar=0.22004893816884757 Phases=1

New Load.load_p6ulv14589_1 conn=wye bus1=p6ulv14589.1 kV=0.12 Vminpu=0.8 Vmaxpu=1.2 model=1 kW=1.260015 kvar=0.2551969186031145 Phases=1

New Load.load_p6ulv14589_2 conn=wye bus1=p6ulv14589.2 kV=0.12 Vminpu=0.8 Vmaxpu=1.2 model=1 kW=1.260015 kvar=0.2551969186031145 Phases=1

New Load.load_p6ulv14590_1 conn=wye bus1=p6ulv14590.1 kV=0.12 Vminpu=0.8 Vmaxpu=1.2 model=1 kW=0.310003 kvar=0.06502735463963502 Phases=1

New Load.load_p6ulv14590_2 conn=wye bus1=p6ulv14590.2 kV=0.12 Vminpu=0.8 Vmaxpu=1.2 model=1 kW=0.310003 kvar=0.06502735463963502 Phases=1

New Load.load_p6ulv16572 conn=wye bus1=p6ulv16572.1.2.3 kV=0.48 Vminpu=0.8 Vmaxpu=1.2 model=1 kW=33.9303 kvar=6.889841272909956 Phases=3

New Load.load_p6ulv16573_1 conn=wye bus1=p6ulv16573.1 kV=0.12 Vminpu=0.8 Vmaxpu=1.2 model=1 kW=0.515005 kvar=0.10511394966246143 Phases=1

New Load.load_p6ulv16573_2 conn=wye bus1=p6ulv16573.2 kV=0.12 Vminpu=0.8 Vmaxpu=1.2 model=1 kW=0.515005 kvar=0.10511394966246143 Phases=1

New Load.load_p6ulv16574_1 conn=wye bus1=p6ulv16574.1 kV=0.12 Vminpu=0.8 Vmaxpu=1.2 model=1 kW=0.91001 kvar=0.18478541176355026 Phases=1

New Load.load_p6ulv16574_2 conn=wye bus1=p6ulv16574.2 kV=0.12 Vminpu=0.8 Vmaxpu=1.2 model=1 kW=0.91001 kvar=0.18478541176355026 Phases=1

New Load.load_p6ulv16575_1 conn=wye bus1=p6ulv16575.1 kV=0.12 Vminpu=0.8 Vmaxpu=1.2 model=1 kW=1.430015 kvar=0.29037693058653563 Phases=1

New Load.load_p6ulv16575_2 conn=wye bus1=p6ulv16575.2 kV=0.12 Vminpu=0.8 Vmaxpu=1.2 model=1 kW=1.430015 kvar=0.29037693058653563 Phases=1

New Load.load_p6ulv16576_1 conn=wye bus1=p6ulv16576.1 kV=0.12 Vminpu=0.8 Vmaxpu=1.2 model=1 kW=0.730005 kvar=0.150132970647273 Phases=1

New Load.load_p6ulv16576_2 conn=wye bus1=p6ulv16576.2 kV=0.12 Vminpu=0.8 Vmaxpu=1.2 model=1 kW=0.730005 kvar=0.150132970647273 Phases=1

New Load.load_p6ulv16577_1 conn=wye bus1=p6ulv16577.1 kV=0.12 Vminpu=0.8 Vmaxpu=1.2 model=1 kW=2.13502 kvar=0.434650162710103 Phases=1

New Load.load_p6ulv16577_2 conn=wye bus1=p6ulv16577.2 kV=0.12 Vminpu=0.8 Vmaxpu=1.2 model=1 kW=2.13502 kvar=0.434650162710103 Phases=1

New Load.load_p6ulv16578_1 conn=wye bus1=p6ulv16578.1 kV=0.12 Vminpu=0.8 Vmaxpu=1.2 model=1 kW=1.6600150000000002 kvar=0.33533928762581683 Phases=1

New Load.load_p6ulv16578_2 conn=wye bus1=p6ulv16578.2 kV=0.12 Vminpu=0.8 Vmaxpu=1.2 model=1 kW=1.6600150000000002 kvar=0.33533928762581683 Phases=1

New Load.load_p6ulv16579_1 conn=wye bus1=p6ulv16579.1 kV=0.12 Vminpu=0.8 Vmaxpu=1.2 model=1 kW=1.465015 kvar=0.2997758712202973 Phases=1

New Load.load_p6ulv16579_2 conn=wye bus1=p6ulv16579.2 kV=0.12 Vminpu=0.8 Vmaxpu=1.2 model=1 kW=1.465015 kvar=0.2997758712202973 Phases=1

New Load.load_p6ulv16580_1 conn=wye bus1=p6ulv16580.1 kV=0.12 Vminpu=0.8 Vmaxpu=1.2 model=1 kW=1.6400150000000002 kvar=0.3347316126167352 Phases=1

New Load.load_p6ulv16580_2 conn=wye bus1=p6ulv16580.2 kV=0.12 Vminpu=0.8 Vmaxpu=1.2 model=1 kW=1.6400150000000002 kvar=0.3347316126167352 Phases=1

New Load.load_p6ulv16581_1 conn=wye bus1=p6ulv16581.1 kV=0.12 Vminpu=0.8 Vmaxpu=1.2 model=1 kW=0.510005 kvar=0.10488772774838868 Phases=1

New Load.load_p6ulv16581_2 conn=wye bus1=p6ulv16581.2 kV=0.12 Vminpu=0.8 Vmaxpu=1.2 model=1 kW=0.510005 kvar=0.10488772774838868 Phases=1

New Load.load_p6ulv16586_1 conn=wye bus1=p6ulv16586.1 kV=0.12 Vminpu=0.8 Vmaxpu=1.2 model=1 kW=0.735005 kvar=0.15001656017253706 Phases=1

New Load.load_p6ulv16586_2 conn=wye bus1=p6ulv16586.2 kV=0.12 Vminpu=0.8 Vmaxpu=1.2 model=1 kW=0.735005 kvar=0.15001656017253706 Phases=1

New Load.load_p6ulv16587_1 conn=wye bus1=p6ulv16587.1 kV=0.12 Vminpu=0.8 Vmaxpu=1.2 model=1 kW=0.670005 kvar=0.13499498901328918 Phases=1

New Load.load_p6ulv16587_2 conn=wye bus1=p6ulv16587.2 kV=0.12 Vminpu=0.8 Vmaxpu=1.2 model=1 kW=0.670005 kvar=0.13499498901328918 Phases=1

New Load.load_p6ulv16588_1 conn=wye bus1=p6ulv16588.1 kV=0.12 Vminpu=0.8 Vmaxpu=1.2 model=1 kW=0.745005 kvar=0.15010625560980215 Phases=1

New Load.load_p6ulv16588_2 conn=wye bus1=p6ulv16588.2 kV=0.12 Vminpu=0.8 Vmaxpu=1.2 model=1 kW=0.745005 kvar=0.15010625560980215 Phases=1

New Load.load_p6ulv16589_1 conn=wye bus1=p6ulv16589.1 kV=0.12 Vminpu=0.8 Vmaxpu=1.2 model=1 kW=1.510015 kvar=0.30503781857651757 Phases=1

New Load.load_p6ulv16589_2 conn=wye bus1=p6ulv16589.2 kV=0.12 Vminpu=0.8 Vmaxpu=1.2 model=1 kW=1.510015 kvar=0.30503781857651757 Phases=1

New Load.load_p6ulv16590_1 conn=wye bus1=p6ulv16590.1 kV=0.12 Vminpu=0.8 Vmaxpu=1.2 model=1 kW=0.735005 kvar=0.15001656017253706 Phases=1

New Load.load_p6ulv16590_2 conn=wye bus1=p6ulv16590.2 kV=0.12 Vminpu=0.8 Vmaxpu=1.2 model=1 kW=0.735005 kvar=0.15001656017253706 Phases=1

New Load.load_p6ulv16591_1 conn=wye bus1=p6ulv16591.1 kV=0.12 Vminpu=0.8 Vmaxpu=1.2 model=1 kW=0.4700045 kvar=0.09494551206520921 Phases=1

New Load.load_p6ulv16591_2 conn=wye bus1=p6ulv16591.2 kV=0.12 Vminpu=0.8 Vmaxpu=1.2 model=1 kW=0.4700045 kvar=0.09494551206520921 Phases=1

New Load.load_p6ulv16592_1 conn=wye bus1=p6ulv16592.1 kV=0.12 Vminpu=0.8 Vmaxpu=1.2 model=1 kW=1.540015 kvar=0.31028769636838605 Phases=1

New Load.load_p6ulv16592_2 conn=wye bus1=p6ulv16592.2 kV=0.12 Vminpu=0.8 Vmaxpu=1.2 model=1 kW=1.540015 kvar=0.31028769636838605 Phases=1

New Load.load_p6ulv16593_1 conn=wye bus1=p6ulv16593.1 kV=0.12 Vminpu=0.8 Vmaxpu=1.2 model=1 kW=1.405015 kvar=0.2853004640706855 Phases=1

New Load.load_p6ulv16593_2 conn=wye bus1=p6ulv16593.2 kV=0.12 Vminpu=0.8 Vmaxpu=1.2 model=1 kW=1.405015 kvar=0.2853004640706855 Phases=1

New Load.load_p6ulv16594_1 conn=wye bus1=p6ulv16594.1 kV=0.12 Vminpu=0.8 Vmaxpu=1.2 model=1 kW=0.4350045 kvar=0.0899122736897623 Phases=1

New Load.load_p6ulv16594_2 conn=wye bus1=p6ulv16594.2 kV=0.12 Vminpu=0.8 Vmaxpu=1.2 model=1 kW=0.4350045 kvar=0.0899122736897623 Phases=1

New Load.load_p6ulv16595_1 conn=wye bus1=p6ulv16595.1 kV=0.12 Vminpu=0.8 Vmaxpu=1.2 model=1 kW=1.480015 kvar=0.2997545802918128 Phases=1

New Load.load_p6ulv16595_2 conn=wye bus1=p6ulv16595.2 kV=0.12 Vminpu=0.8 Vmaxpu=1.2 model=1 kW=1.480015 kvar=0.2997545802918128 Phases=1

New Load.load_p6ulv16596_1 conn=wye bus1=p6ulv16596.1 kV=0.12 Vminpu=0.8 Vmaxpu=1.2 model=1 kW=1.0600100000000001 kvar=0.2152442108586509 Phases=1

New Load.load_p6ulv16596_2 conn=wye bus1=p6ulv16596.2 kV=0.12 Vminpu=0.8 Vmaxpu=1.2 model=1 kW=1.0600100000000001 kvar=0.2152442108586509 Phases=1

New Load.load_p6ulv16597_1 conn=wye bus1=p6ulv16597.1 kV=0.12 Vminpu=0.8 Vmaxpu=1.2 model=1 kW=0.95001 kvar=0.1948871509057869 Phases=1

New Load.load_p6ulv16597_2 conn=wye bus1=p6ulv16597.2 kV=0.12 Vminpu=0.8 Vmaxpu=1.2 model=1 kW=0.95001 kvar=0.1948871509057869 Phases=1

New Load.load_p6ulv16598_1 conn=wye bus1=p6ulv16598.1 kV=0.12 Vminpu=0.8 Vmaxpu=1.2 model=1 kW=1.05501 kvar=0.21478031501381048 Phases=1

New Load.load_p6ulv16598_2 conn=wye bus1=p6ulv16598.2 kV=0.12 Vminpu=0.8 Vmaxpu=1.2 model=1 kW=1.05501 kvar=0.21478031501381048 Phases=1

New Load.load_p6ulv16599_1 conn=wye bus1=p6ulv16599.1 kV=0.12 Vminpu=0.8 Vmaxpu=1.2 model=1 kW=1.545015 kvar=0.3153418489873843 Phases=1

New Load.load_p6ulv16599_2 conn=wye bus1=p6ulv16599.2 kV=0.12 Vminpu=0.8 Vmaxpu=1.2 model=1 kW=1.545015 kvar=0.3153418489873843 Phases=1

New Load.load_p6ulv16600_1 conn=wye bus1=p6ulv16600.1 kV=0.12 Vminpu=0.8 Vmaxpu=1.2 model=1 kW=0.89001 kvar=0.17979073645711227 Phases=1

New Load.load_p6ulv16600_2 conn=wye bus1=p6ulv16600.2 kV=0.12 Vminpu=0.8 Vmaxpu=1.2 model=1 kW=0.89001 kvar=0.17979073645711227 Phases=1

New Load.load_p6ulv16601_1 conn=wye bus1=p6ulv16601.1 kV=0.12 Vminpu=0.8 Vmaxpu=1.2 model=1 kW=1.78502 kvar=0.35965217466810157 Phases=1

New Load.load_p6ulv16601_2 conn=wye bus1=p6ulv16601.2 kV=0.12 Vminpu=0.8 Vmaxpu=1.2 model=1 kW=1.78502 kvar=0.35965217466810157 Phases=1

New Load.load_p6ulv16602_1 conn=wye bus1=p6ulv16602.1 kV=0.12 Vminpu=0.8 Vmaxpu=1.2 model=1 kW=0.545005 kvar=0.11009634759475566 Phases=1

New Load.load_p6ulv16602_2 conn=wye bus1=p6ulv16602.2 kV=0.12 Vminpu=0.8 Vmaxpu=1.2 model=1 kW=0.545005 kvar=0.11009634759475566 Phases=1

New Load.load_p6ulv16603_1 conn=wye bus1=p6ulv16603.1 kV=0.12 Vminpu=0.8 Vmaxpu=1.2 model=1 kW=0.88001 kvar=0.18007035042820305 Phases=1

New Load.load_p6ulv16603_2 conn=wye bus1=p6ulv16603.2 kV=0.12 Vminpu=0.8 Vmaxpu=1.2 model=1 kW=0.88001 kvar=0.18007035042820305 Phases=1

New Load.load_p6ulv16604_1 conn=wye bus1=p6ulv16604.1 kV=0.12 Vminpu=0.8 Vmaxpu=1.2 model=1 kW=1.2750150000000002 kvar=0.2602340997250187 Phases=1

New Load.load_p6ulv16604_2 conn=wye bus1=p6ulv16604.2 kV=0.12 Vminpu=0.8 Vmaxpu=1.2 model=1 kW=1.2750150000000002 kvar=0.2602340997250187 Phases=1

New Load.load_p6ulv16605_1 conn=wye bus1=p6ulv16605.1 kV=0.12 Vminpu=0.8 Vmaxpu=1.2 model=1 kW=1.10501 kvar=0.2249593803787744 Phases=1

New Load.load_p6ulv16605_2 conn=wye bus1=p6ulv16605.2 kV=0.12 Vminpu=0.8 Vmaxpu=1.2 model=1 kW=1.10501 kvar=0.2249593803787744 Phases=1

New Load.load_p6ulv16606_1 conn=wye bus1=p6ulv16606.1 kV=0.12 Vminpu=0.8 Vmaxpu=1.2 model=1 kW=0.380004 kvar=0.074947817996359 Phases=1

New Load.load_p6ulv16606_2 conn=wye bus1=p6ulv16606.2 kV=0.12 Vminpu=0.8 Vmaxpu=1.2 model=1 kW=0.380004 kvar=0.074947817996359 Phases=1

New Load.load_p6ulv16607_1 conn=wye bus1=p6ulv16607.1 kV=0.12 Vminpu=0.8 Vmaxpu=1.2 model=1 kW=0.94501 kvar=0.18990552329105911 Phases=1

New Load.load_p6ulv16607_2 conn=wye bus1=p6ulv16607.2 kV=0.12 Vminpu=0.8 Vmaxpu=1.2 model=1 kW=0.94501 kvar=0.18990552329105911 Phases=1

New Load.load_p6ulv16608_1 conn=wye bus1=p6ulv16608.1 kV=0.12 Vminpu=0.8 Vmaxpu=1.2 model=1 kW=1.94502 kvar=0.394953156106351 Phases=1

New Load.load_p6ulv16608_2 conn=wye bus1=p6ulv16608.2 kV=0.12 Vminpu=0.8 Vmaxpu=1.2 model=1 kW=1.94502 kvar=0.394953156106351 Phases=1

New Load.load_p6ulv16609_1 conn=wye bus1=p6ulv16609.1 kV=0.12 Vminpu=0.8 Vmaxpu=1.2 model=1 kW=1.12001 kvar=0.2297613266028677 Phases=1

New Load.load_p6ulv16609_2 conn=wye bus1=p6ulv16609.2 kV=0.12 Vminpu=0.8 Vmaxpu=1.2 model=1 kW=1.12001 kvar=0.2297613266028677 Phases=1

New Load.load_p6ulv16610_1 conn=wye bus1=p6ulv16610.1 kV=0.12 Vminpu=0.8 Vmaxpu=1.2 model=1 kW=1.03501 kvar=0.2101677443428008 Phases=1

New Load.load_p6ulv16610_2 conn=wye bus1=p6ulv16610.2 kV=0.12 Vminpu=0.8 Vmaxpu=1.2 model=1 kW=1.03501 kvar=0.2101677443428008 Phases=1

New Load.load_p6ulv16611_1 conn=wye bus1=p6ulv16611.1 kV=0.12 Vminpu=0.8 Vmaxpu=1.2 model=1 kW=1.5250150000000002 kvar=0.30966750334676607 Phases=1

New Load.load_p6ulv16611_2 conn=wye bus1=p6ulv16611.2 kV=0.12 Vminpu=0.8 Vmaxpu=1.2 model=1 kW=1.5250150000000002 kvar=0.30966750334676607 Phases=1

New Load.load_p6ulv16612_1 conn=wye bus1=p6ulv16612.1 kV=0.12 Vminpu=0.8 Vmaxpu=1.2 model=1 kW=1.14001 kvar=0.23029318487261108 Phases=1

New Load.load_p6ulv16612_2 conn=wye bus1=p6ulv16612.2 kV=0.12 Vminpu=0.8 Vmaxpu=1.2 model=1 kW=1.14001 kvar=0.23029318487261108 Phases=1

New Load.load_p6ulv16613_1 conn=wye bus1=p6ulv16613.1 kV=0.12 Vminpu=0.8 Vmaxpu=1.2 model=1 kW=0.96501 kvar=0.19494147098176193 Phases=1

New Load.load_p6ulv16613_2 conn=wye bus1=p6ulv16613.2 kV=0.12 Vminpu=0.8 Vmaxpu=1.2 model=1 kW=0.96501 kvar=0.19494147098176193 Phases=1

New Load.load_p6ulv16814_1 conn=wye bus1=p6ulv16814.1 kV=0.12 Vminpu=0.8 Vmaxpu=1.2 model=1 kW=2.490025 kvar=0.5056211414451866 Phases=1

New Load.load_p6ulv16814_2 conn=wye bus1=p6ulv16814.2 kV=0.12 Vminpu=0.8 Vmaxpu=1.2 model=1 kW=2.490025 kvar=0.5056211414451866 Phases=1

New Load.load_p6ulv16815_1 conn=wye bus1=p6ulv16815.1 kV=0.12 Vminpu=0.8 Vmaxpu=1.2 model=1 kW=0.630005 kvar=0.12493013846107302 Phases=1

New Load.load_p6ulv16815_2 conn=wye bus1=p6ulv16815.2 kV=0.12 Vminpu=0.8 Vmaxpu=1.2 model=1 kW=0.630005 kvar=0.12493013846107302 Phases=1

New Load.load_p6ulv16816_1 conn=wye bus1=p6ulv16816.1 kV=0.12 Vminpu=0.8 Vmaxpu=1.2 model=1 kW=2.610025 kvar=0.529988180721267 Phases=1

New Load.load_p6ulv16816_2 conn=wye bus1=p6ulv16816.2 kV=0.12 Vminpu=0.8 Vmaxpu=1.2 model=1 kW=2.610025 kvar=0.529988180721267 Phases=1

New Load.load_p6ulv16817_1 conn=wye bus1=p6ulv16817.1 kV=0.12 Vminpu=0.8 Vmaxpu=1.2 model=1 kW=0.3500035 kvar=0.06996482475796689 Phases=1

New Load.load_p6ulv16817_2 conn=wye bus1=p6ulv16817.2 kV=0.12 Vminpu=0.8 Vmaxpu=1.2 model=1 kW=0.3500035 kvar=0.06996482475796689 Phases=1

New Load.load_p6ulv16818_1 conn=wye bus1=p6ulv16818.1 kV=0.12 Vminpu=0.8 Vmaxpu=1.2 model=1 kW=1.80502 kvar=0.36463171775577446 Phases=1

New Load.load_p6ulv16818_2 conn=wye bus1=p6ulv16818.2 kV=0.12 Vminpu=0.8 Vmaxpu=1.2 model=1 kW=1.80502 kvar=0.36463171775577446 Phases=1

New Load.load_p6ulv16819_1 conn=wye bus1=p6ulv16819.1 kV=0.12 Vminpu=0.8 Vmaxpu=1.2 model=1 kW=0.8650100000000001 kvar=0.175194649715186 Phases=1

New Load.load_p6ulv16819_2 conn=wye bus1=p6ulv16819.2 kV=0.12 Vminpu=0.8 Vmaxpu=1.2 model=1 kW=0.8650100000000001 kvar=0.175194649715186 Phases=1

New Load.load_p6ulv16820_1 conn=wye bus1=p6ulv16820.1 kV=0.12 Vminpu=0.8 Vmaxpu=1.2 model=1 kW=0.500005 kvar=0.09994974965423842 Phases=1

New Load.load_p6ulv16820_2 conn=wye bus1=p6ulv16820.2 kV=0.12 Vminpu=0.8 Vmaxpu=1.2 model=1 kW=0.500005 kvar=0.09994974965423842 Phases=1

New Load.load_p6ulv16821_1 conn=wye bus1=p6ulv16821.1 kV=0.12 Vminpu=0.8 Vmaxpu=1.2 model=1 kW=0.210002 kvar=0.04004521322670341 Phases=1

New Load.load_p6ulv16821_2 conn=wye bus1=p6ulv16821.2 kV=0.12 Vminpu=0.8 Vmaxpu=1.2 model=1 kW=0.210002 kvar=0.04004521322670341 Phases=1

New Load.load_p6ulv16822_1 conn=wye bus1=p6ulv16822.1 kV=0.12 Vminpu=0.8 Vmaxpu=1.2 model=1 kW=1.305015 kvar=0.2649945980072851 Phases=1

New Load.load_p6ulv16822_2 conn=wye bus1=p6ulv16822.2 kV=0.12 Vminpu=0.8 Vmaxpu=1.2 model=1 kW=1.305015 kvar=0.2649945980072851 Phases=1

New Load.load_p6ulv16823_1 conn=wye bus1=p6ulv16823.1 kV=0.12 Vminpu=0.8 Vmaxpu=1.2 model=1 kW=1.2650150000000002 kvar=0.25487971884783844 Phases=1

New Load.load_p6ulv16823_2 conn=wye bus1=p6ulv16823.2 kV=0.12 Vminpu=0.8 Vmaxpu=1.2 model=1 kW=1.2650150000000002 kvar=0.25487971884783844 Phases=1

New Load.load_p6ulv16824_1 conn=wye bus1=p6ulv16824.1 kV=0.12 Vminpu=0.8 Vmaxpu=1.2 model=1 kW=0.700005 kvar=0.1399292497209331 Phases=1

New Load.load_p6ulv16824_2 conn=wye bus1=p6ulv16824.2 kV=0.12 Vminpu=0.8 Vmaxpu=1.2 model=1 kW=0.700005 kvar=0.1399292497209331 Phases=1

New Load.load_p6ulv16825_1 conn=wye bus1=p6ulv16825.1 kV=0.12 Vminpu=0.8 Vmaxpu=1.2 model=1 kW=1.1750100000000003 kvar=0.23982280170656367 Phases=1

New Load.load_p6ulv16825_2 conn=wye bus1=p6ulv16825.2 kV=0.12 Vminpu=0.8 Vmaxpu=1.2 model=1 kW=1.1750100000000003 kvar=0.23982280170656367 Phases=1

New Load.load_p6ulv16826_1 conn=wye bus1=p6ulv16826.1 kV=0.12 Vminpu=0.8 Vmaxpu=1.2 model=1 kW=0.4400045 kvar=0.1449345226445076 Phases=1

New Load.load_p6ulv16826_2 conn=wye bus1=p6ulv16826.2 kV=0.12 Vminpu=0.8 Vmaxpu=1.2 model=1 kW=0.4400045 kvar=0.1449345226445076 Phases=1

New Load.load_p6ulv16827_1 conn=wye bus1=p6ulv16827.1 kV=0.12 Vminpu=0.8 Vmaxpu=1.2 model=1 kW=5.87005 kvar=1.9293921316051856 Phases=1

New Load.load_p6ulv16827_2 conn=wye bus1=p6ulv16827.2 kV=0.12 Vminpu=0.8 Vmaxpu=1.2 model=1 kW=5.87005 kvar=1.9293921316051856 Phases=1

New Load.load_p6ulv16828_1 conn=wye bus1=p6ulv16828.1 kV=0.12 Vminpu=0.8 Vmaxpu=1.2 model=1 kW=0.515005 kvar=0.10511394966246143 Phases=1

New Load.load_p6ulv16828_2 conn=wye bus1=p6ulv16828.2 kV=0.12 Vminpu=0.8 Vmaxpu=1.2 model=1 kW=0.515005 kvar=0.10511394966246143 Phases=1

New Load.load_p6ulv16829_1 conn=wye bus1=p6ulv16829.1 kV=0.12 Vminpu=0.8 Vmaxpu=1.2 model=1 kW=1.23501 kvar=0.2501325352825422 Phases=1

New Load.load_p6ulv16829_2 conn=wye bus1=p6ulv16829.2 kV=0.12 Vminpu=0.8 Vmaxpu=1.2 model=1 kW=1.23501 kvar=0.2501325352825422 Phases=1

New Load.load_p6ulv16830_1 conn=wye bus1=p6ulv16830.1 kV=0.12 Vminpu=0.8 Vmaxpu=1.2 model=1 kW=1.04001 kvar=0.21009220550641156 Phases=1

New Load.load_p6ulv16830_2 conn=wye bus1=p6ulv16830.2 kV=0.12 Vminpu=0.8 Vmaxpu=1.2 model=1 kW=1.04001 kvar=0.21009220550641156 Phases=1

New Load.load_p6ulv16831_1 conn=wye bus1=p6ulv16831.1 kV=0.12 Vminpu=0.8 Vmaxpu=1.2 model=1 kW=1.8550200000000001 kvar=0.37473220743887425 Phases=1

New Load.load_p6ulv16831_2 conn=wye bus1=p6ulv16831.2 kV=0.12 Vminpu=0.8 Vmaxpu=1.2 model=1 kW=1.8550200000000001 kvar=0.37473220743887425 Phases=1

New Load.load_p6ulv16832_1 conn=wye bus1=p6ulv16832.1 kV=0.12 Vminpu=0.8 Vmaxpu=1.2 model=1 kW=1.21001 kvar=0.24506916463609923 Phases=1

New Load.load_p6ulv16832_2 conn=wye bus1=p6ulv16832.2 kV=0.12 Vminpu=0.8 Vmaxpu=1.2 model=1 kW=1.21001 kvar=0.24506916463609923 Phases=1

New Load.load_p6ulv16833_1 conn=wye bus1=p6ulv16833.1 kV=0.12 Vminpu=0.8 Vmaxpu=1.2 model=1 kW=1.290015 kvar=0.25991680771334275 Phases=1

New Load.load_p6ulv16833_2 conn=wye bus1=p6ulv16833.2 kV=0.12 Vminpu=0.8 Vmaxpu=1.2 model=1 kW=1.290015 kvar=0.25991680771334275 Phases=1

New Load.load_p6ulv16834_1 conn=wye bus1=p6ulv16834.1 kV=0.12 Vminpu=0.8 Vmaxpu=1.2 model=1 kW=0.725005 kvar=0.14985327275107757 Phases=1

New Load.load_p6ulv16834_2 conn=wye bus1=p6ulv16834.2 kV=0.12 Vminpu=0.8 Vmaxpu=1.2 model=1 kW=0.725005 kvar=0.14985327275107757 Phases=1

New Load.load_p6ulv16835_1 conn=wye bus1=p6ulv16835.1 kV=0.12 Vminpu=0.8 Vmaxpu=1.2 model=1 kW=1.295015 kvar=0.26498994881851273 Phases=1

New Load.load_p6ulv16835_2 conn=wye bus1=p6ulv16835.2 kV=0.12 Vminpu=0.8 Vmaxpu=1.2 model=1 kW=1.295015 kvar=0.26498994881851273 Phases=1

New Load.load_p6ulv16836_1 conn=wye bus1=p6ulv16836.1 kV=0.12 Vminpu=0.8 Vmaxpu=1.2 model=1 kW=0.605005 kvar=0.19992693295245656 Phases=1

New Load.load_p6ulv16836_2 conn=wye bus1=p6ulv16836.2 kV=0.12 Vminpu=0.8 Vmaxpu=1.2 model=1 kW=0.605005 kvar=0.19992693295245656 Phases=1

New Load.load_p6ulv16837_1 conn=wye bus1=p6ulv16837.1 kV=0.12 Vminpu=0.8 Vmaxpu=1.2 model=1 kW=0.33000350000000006 kvar=0.10998179932708904 Phases=1
