New Load.load_p6ulv13783_1 conn=wye bus1=p6ulv13783.1 kV=0.12 Vminpu=0.8 Vmaxpu=1.2 model=1 kva=1.465015 pf=1.0 Phases=1
New Load.load_p6ulv13783_2 conn=wye bus1=p6ulv13783.2 kV=0.12 Vminpu=0.8 Vmaxpu=1.2 model=1 kva=1.465015 pf=1.0 Phases=1
New Load.load_p6ulv13784_1 conn=wye bus1=p6ulv13784.1 kV=0.12 Vminpu=0.8 Vmaxpu=1.2 model=1 kva=1.330015 pf=1.0 Phases=1
New Load.load_p6ulv13784_2 conn=wye bus1=p6ulv13784.2 kV=0.12 Vminpu=0.8 Vmaxpu=1.2 model=1 kva=1.330015 pf=1.0 Phases=1
New Load.load_p6ulv13785_2 conn=wye bus1=p6ulv13785.2 kV=0.12 Vminpu=0.8 Vmaxpu=1.2 model=1 kva=0.6600050000000001 pf=1.0 Phases=1
New Load.load_p6ulv13787_2 conn=wye bus1=p6ulv13787.2 kV=0.12 Vminpu=0.8 Vmaxpu=1.2 model=1 kva=0.585005 pf=1.0 Phases=1
New Load.load_p6ulv13788_1 conn=wye bus1=p6ulv13788.1 kV=0.12 Vminpu=0.8 Vmaxpu=1.2 model=1 kva=0.82001 pf=1.0 Phases=1
New Load.load_p6ulv13788_2 conn=wye bus1=p6ulv13788.2 kV=0.12 Vminpu=0.8 Vmaxpu=1.2 model=1 kva=0.82001 pf=1.0 Phases=1
New Load.load_p6ulv13789_1 conn=wye bus1=p6ulv13789.1 kV=0.12 Vminpu=0.8 Vmaxpu=1.2 model=1 kva=0.85501 pf=1.0 Phases=1
New Load.load_p6ulv13789_2 conn=wye bus1=p6ulv13789.2 kV=0.12 Vminpu=0.8 Vmaxpu=1.2 model=1 kva=0.85501 pf=1.0 Phases=1
New Load.load_p6ulv13790_1 conn=wye bus1=p6ulv13790.1 kV=0.12 Vminpu=0.8 Vmaxpu=1.2 model=1 kva=0.4700045 pf=1.0 Phases=1
New Load.load_p6ulv13790_2 conn=wye bus1=p6ulv13790.2 kV=0.12 Vminpu=0.8 Vmaxpu=1.2 model=1 kva=0.4700045 pf=1.0 Phases=1
New Load.load_p6ulv13791_1 conn=wye bus1=p6ulv13791.1 kV=0.12 Vminpu=0.8 Vmaxpu=1.2 model=1 kva=0.685005 pf=1.0 Phases=1
New Load.load_p6ulv13792_1 conn=wye bus1=p6ulv13792.1 kV=0.12 Vminpu=0.8 Vmaxpu=1.2 model=1 kva=0.550005 pf=1.0 Phases=1
New Load.load_p6ulv13792_2 conn=wye bus1=p6ulv13792.2 kV=0.12 Vminpu=0.8 Vmaxpu=1.2 model=1 kva=0.550005 pf=1.0 Phases=1
New Load.load_p6ulv13793_2 conn=wye bus1=p6ulv13793.2 kV=0.12 Vminpu=0.8 Vmaxpu=1.2 model=1 kva=1.8750200000000001 pf=1.0 Phases=1
New Load.load_p6ulv13794_1 conn=wye bus1=p6ulv13794.1 kV=0.12 Vminpu=0.8 Vmaxpu=1.2 model=1 kva=2.7100250000000004 pf=1.0 Phases=1
New Load.load_p6ulv13795_1 conn=wye bus1=p6ulv13795.1 kV=0.12 Vminpu=0.8 Vmaxpu=1.2 model=1 kva=7.6801 pf=1.0 Phases=1
New Load.load_p6ulv13797_1 conn=wye bus1=p6ulv13797.1 kV=0.12 Vminpu=0.8 Vmaxpu=1.2 model=1 kva=1.11501 pf=1.0 Phases=1
New Load.load_p6ulv13797_2 conn=wye bus1=p6ulv13797.2 kV=0.12 Vminpu=0.8 Vmaxpu=1.2 model=1 kva=1.11501 pf=1.0 Phases=1
New Load.load_p6ulv13798_1 conn=wye bus1=p6ulv13798.1 kV=0.12 Vminpu=0.8 Vmaxpu=1.2 model=1 kva=0.535005 pf=1.0 Phases=1
New Load.load_p6ulv13798_2 conn=wye bus1=p6ulv13798.2 kV=0.12 Vminpu=0.8 Vmaxpu=1.2 model=1 kva=0.535005 pf=1.0 Phases=1
New Load.load_p6ulv13799_1 conn=wye bus1=p6ulv13799.1 kV=0.12 Vminpu=0.8 Vmaxpu=1.2 model=1 kva=0.695005 pf=1.0 Phases=1
New Load.load_p6ulv13799_2 conn=wye bus1=p6ulv13799.2 kV=0.12 Vminpu=0.8 Vmaxpu=1.2 model=1 kva=0.695005 pf=1.0 Phases=1
New Load.load_p6ulv13800_1 conn=wye bus1=p6ulv13800.1 kV=0.12 Vminpu=0.8 Vmaxpu=1.2 model=1 kva=0.8650100000000001 pf=1.0 Phases=1
New Load.load_p6ulv13801_1 conn=wye bus1=p6ulv13801.1 kV=0.12 Vminpu=0.8 Vmaxpu=1.2 model=1 kva=0.480005 pf=1.0 Phases=1
New Load.load_p6ulv13801_2 conn=wye bus1=p6ulv13801.2 kV=0.12 Vminpu=0.8 Vmaxpu=1.2 model=1 kva=0.480005 pf=1.0 Phases=1
New Load.load_p6ulv14405_1 conn=wye bus1=p6ulv14405.1 kV=0.12 Vminpu=0.8 Vmaxpu=1.2 model=1 kva=0.545005 pf=1.0 Phases=1
New Load.load_p6ulv14405_2 conn=wye bus1=p6ulv14405.2 kV=0.12 Vminpu=0.8 Vmaxpu=1.2 model=1 kva=0.545005 pf=1.0 Phases=1
New Load.load_p6ulv14406_1 conn=wye bus1=p6ulv14406.1 kV=0.12 Vminpu=0.8 Vmaxpu=1.2 model=1 kva=0.290003 pf=1.0 Phases=1
New Load.load_p6ulv14407_1 conn=wye bus1=p6ulv14407.1 kV=0.12 Vminpu=0.8 Vmaxpu=1.2 model=1 kva=1.86002 pf=1.0 Phases=1
New Load.load_p6ulv14408_1 conn=wye bus1=p6ulv14408.1 kV=0.12 Vminpu=0.8 Vmaxpu=1.2 model=1 kva=0.83001 pf=1.0 Phases=1
New Load.load_p6ulv14408_2 conn=wye bus1=p6ulv14408.2 kV=0.12 Vminpu=0.8 Vmaxpu=1.2 model=1 kva=0.83001 pf=1.0 Phases=1
New Load.load_p6ulv14409_1 conn=wye bus1=p6ulv14409.1 kV=0.12 Vminpu=0.8 Vmaxpu=1.2 model=1 kva=0.5300050000000001 pf=1.0 Phases=1
New Load.load_p6ulv14410_1 conn=wye bus1=p6ulv14410.1 kV=0.12 Vminpu=0.8 Vmaxpu=1.2 model=1 kva=0.610005 pf=1.0 Phases=1
New Load.load_p6ulv14410_2 conn=wye bus1=p6ulv14410.2 kV=0.12 Vminpu=0.8 Vmaxpu=1.2 model=1 kva=0.610005 pf=1.0 Phases=1
New Load.load_p6ulv14411_2 conn=wye bus1=p6ulv14411.2 kV=0.12 Vminpu=0.8 Vmaxpu=1.2 model=1 kva=0.705005 pf=1.0 Phases=1
New Load.load_p6ulv14412_1 conn=wye bus1=p6ulv14412.1 kV=0.12 Vminpu=0.8 Vmaxpu=1.2 model=1 kva=0.410004 pf=1.0 Phases=1
New Load.load_p6ulv14412_2 conn=wye bus1=p6ulv14412.2 kV=0.12 Vminpu=0.8 Vmaxpu=1.2 model=1 kva=0.410004 pf=1.0 Phases=1
New Load.load_p6ulv14413_1 conn=wye bus1=p6ulv14413.1 kV=0.12 Vminpu=0.8 Vmaxpu=1.2 model=1 kva=0.3450035 pf=1.0 Phases=1
New Load.load_p6ulv14413_2 conn=wye bus1=p6ulv14413.2 kV=0.12 Vminpu=0.8 Vmaxpu=1.2 model=1 kva=0.3450035 pf=1.0 Phases=1
New Load.load_p6ulv14414_1 conn=wye bus1=p6ulv14414.1 kV=0.12 Vminpu=0.8 Vmaxpu=1.2 model=1 kva=0.580005 pf=1.0 Phases=1
New Load.load_p6ulv14414_2 conn=wye bus1=p6ulv14414.2 kV=0.12 Vminpu=0.8 Vmaxpu=1.2 model=1 kva=0.580005 pf=1.0 Phases=1
New Load.load_p6ulv14415_1 conn=wye bus1=p6ulv14415.1 kV=0.12 Vminpu=0.8 Vmaxpu=1.2 model=1 kva=0.620005 pf=1.0 Phases=1
New Load.load_p6ulv14415_2 conn=wye bus1=p6ulv14415.2 kV=0.12 Vminpu=0.8 Vmaxpu=1.2 model=1 kva=0.620005 pf=1.0 Phases=1
New Load.load_p6ulv14574_1 conn=wye bus1=p6ulv14574.1 kV=0.12 Vminpu=0.8 Vmaxpu=1.2 model=1 kva=0.77001 pf=1.0 Phases=1
New Load.load_p6ulv14575_1 conn=wye bus1=p6ulv14575.1 kV=0.12 Vminpu=0.8 Vmaxpu=1.2 model=1 kva=1.80502 pf=1.0 Phases=1
New Load.load_p6ulv14577_1 conn=wye bus1=p6ulv14577.1 kV=0.12 Vminpu=0.8 Vmaxpu=1.2 model=1 kva=0.4300045 pf=1.0 Phases=1
New Load.load_p6ulv14577_2 conn=wye bus1=p6ulv14577.2 kV=0.12 Vminpu=0.8 Vmaxpu=1.2 model=1 kva=0.4300045 pf=1.0 Phases=1
New Load.load_p6ulv14578_1 conn=wye bus1=p6ulv14578.1 kV=0.12 Vminpu=0.8 Vmaxpu=1.2 model=1 kva=0.4250045 pf=1.0 Phases=1
New Load.load_p6ulv14578_2 conn=wye bus1=p6ulv14578.2 kV=0.12 Vminpu=0.8 Vmaxpu=1.2 model=1 kva=0.4250045 pf=1.0 Phases=1
New Load.load_p6ulv14579_2 conn=wye bus1=p6ulv14579.2 kV=0.12 Vminpu=0.8 Vmaxpu=1.2 model=1 kva=1.09001 pf=1.0 Phases=1
New Load.load_p6ulv14580_1 conn=wye bus1=p6ulv14580.1 kV=0.12 Vminpu=0.8 Vmaxpu=1.2 model=1 kva=0.715005 pf=1.0 Phases=1
New Load.load_p6ulv14581_1 conn=wye bus1=p6ulv14581.1 kV=0.12 Vminpu=0.8 Vmaxpu=1.2 model=1 kva=1.565015 pf=1.0 Phases=1
New Load.load_p6ulv14581_2 conn=wye bus1=p6ulv14581.2 kV=0.12 Vminpu=0.8 Vmaxpu=1.2 model=1 kva=1.565015 pf=1.0 Phases=1
New Load.load_p6ulv14582_1 conn=wye bus1=p6ulv14582.1 kV=0.12 Vminpu=0.8 Vmaxpu=1.2 model=1 kva=0.705005 pf=1.0 Phases=1
New Load.load_p6ulv14582_2 conn=wye bus1=p6ulv14582.2 kV=0.12 Vminpu=0.8 Vmaxpu=1.2 model=1 kva=0.705005 pf=1.0 Phases=1
New Load.load_p6ulv14583_2 conn=wye bus1=p6ulv14583.2 kV=0.12 Vminpu=0.8 Vmaxpu=1.2 model=1 kva=0.490005 pf=1.0 Phases=1
New Load.load_p6ulv14584_1 conn=wye bus1=p6ulv14584.1 kV=0.12 Vminpu=0.8 Vmaxpu=1.2 model=1 kva=0.88501 pf=1.0 Phases=1
New Load.load_p6ulv14584_2 conn=wye bus1=p6ulv14584.2 kV=0.12 Vminpu=0.8 Vmaxpu=1.2 model=1 kva=0.88501 pf=1.0 Phases=1
New Load.load_p6ulv14585_1 conn=wye bus1=p6ulv14585.1 kV=0.12 Vminpu=0.8 Vmaxpu=1.2 model=1 kva=1.300015 pf=1.0 Phases=1
New Load.load_p6ulv14585_2 conn=wye bus1=p6ulv14585.2 kV=0.12 Vminpu=0.8 Vmaxpu=1.2 model=1 kva=1.300015 pf=1.0 Phases=1
New Load.load_p6ulv14586_1 conn=wye bus1=p6ulv14586.1 kV=0.12 Vminpu=0.8 Vmaxpu=1.2 model=1 kva=0.560005 pf=1.0 Phases=1
New Load.load_p6ulv14586_2 conn=wye bus1=p6ulv14586.2 kV=0.12 Vminpu=0.8 Vmaxpu=1.2 model=1 kva=0.560005 pf=1.0 Phases=1
New Load.load_p6ulv14587_1 conn=wye bus1=p6ulv14587.1 kV=0.12 Vminpu=0.8 Vmaxpu=1.2 model=1 kva=2.665025 pf=1.0 Phases=1
New Load.load_p6ulv14587_2 conn=wye bus1=p6ulv14587.2 kV=0.12 Vminpu=0.8 Vmaxpu=1.2 model=1 kva=2.665025 pf=1.0 Phases=1
New Load.load_p6ulv14588_1 conn=wye bus1=p6ulv14588.1 kV=0.12 Vminpu=0.8 Vmaxpu=1.2 model=1 kva=1.09501 pf=1.0 Phases=1
New Load.load_p6ulv14588_2 conn=wye bus1=p6ulv14588.2 kV=0.12 Vminpu=0.8 Vmaxpu=1.2 model=1 kva=1.09501 pf=1.0 Phases=1
New Load.load_p6ulv14589_1 conn=wye bus1=p6ulv14589.1 kV=0.12 Vminpu=0.8 Vmaxpu=1.2 model=1 kva=1.260015 pf=1.0 Phases=1
New Load.load_p6ulv14589_2 conn=wye bus1=p6ulv14589.2 kV=0.12 Vminpu=0.8 Vmaxpu=1.2 model=1 kva=1.260015 pf=1.0 Phases=1
New Load.load_p6ulv14590_2 conn=wye bus1=p6ulv14590.2 kV=0.12 Vminpu=0.8 Vmaxpu=1.2 model=1 kva=0.310003 pf=1.0 Phases=1
New Load.load_p6ulv16572 conn=wye bus1=p6ulv16572.1.2.3 kV=0.48 Vminpu=0.8 Vmaxpu=1.2 model=1 kva=33.9303 pf=1.0 Phases=3
New Load.load_p6ulv16573_1 conn=wye bus1=p6ulv16573.1 kV=0.12 Vminpu=0.8 Vmaxpu=1.2 model=1 kva=0.515005 pf=1.0 Phases=1
New Load.load_p6ulv16573_2 conn=wye bus1=p6ulv16573.2 kV=0.12 Vminpu=0.8 Vmaxpu=1.2 model=1 kva=0.515005 pf=1.0 Phases=1
New Load.load_p6ulv16574_2 conn=wye bus1=p6ulv16574.2 kV=0.12 Vminpu=0.8 Vmaxpu=1.2 model=1 kva=0.91001 pf=1.0 Phases=1
New Load.load_p6ulv16575_1 conn=wye bus1=p6ulv16575.1 kV=0.12 Vminpu=0.8 Vmaxpu=1.2 model=1 kva=1.430015 pf=1.0 Phases=1
New Load.load_p6ulv16575_2 conn=wye bus1=p6ulv16575.2 kV=0.12 Vminpu=0.8 Vmaxpu=1.2 model=1 kva=1.430015 pf=1.0 Phases=1
New Load.load_p6ulv16576_1 conn=wye bus1=p6ulv16576.1 kV=0.12 Vminpu=0.8 Vmaxpu=1.2 model=1 kva=0.730005 pf=1.0 Phases=1
New Load.load_p6ulv16576_2 conn=wye bus1=p6ulv16576.2 kV=0.12 Vminpu=0.8 Vmaxpu=1.2 model=1 kva=0.730005 pf=1.0 Phases=1
New Load.load_p6ulv16577_1 conn=wye bus1=p6ulv16577.1 kV=0.12 Vminpu=0.8 Vmaxpu=1.2 model=1 kva=2.13502 pf=1.0 Phases=1
New Load.load_p6ulv16578_1 conn=wye bus1=p6ulv16578.1 kV=0.12 Vminpu=0.8 Vmaxpu=1.2 model=1 kva=1.6600150000000002 pf=1.0 Phases=1
New Load.load_p6ulv16579_1 conn=wye bus1=p6ulv16579.1 kV=0.12 Vminpu=0.8 Vmaxpu=1.2 model=1 kva=1.465015 pf=1.0 Phases=1
New Load.load_p6ulv16580_1 conn=wye bus1=p6ulv16580.1 kV=0.12 Vminpu=0.8 Vmaxpu=1.2 model=1 kva=1.6400150000000002 pf=1.0 Phases=1
New Load.load_p6ulv16581_2 conn=wye bus1=p6ulv16581.2 kV=0.12 Vminpu=0.8 Vmaxpu=1.2 model=1 kva=0.510005 pf=1.0 Phases=1
New Load.load_p6ulv16587_1 conn=wye bus1=p6ulv16587.1 kV=0.12 Vminpu=0.8 Vmaxpu=1.2 model=1 kva=0.670005 pf=1.0 Phases=1
New Load.load_p6ulv16587_2 conn=wye bus1=p6ulv16587.2 kV=0.12 Vminpu=0.8 Vmaxpu=1.2 model=1 kva=0.670005 pf=1.0 Phases=1
New Load.load_p6ulv16588_1 conn=wye bus1=p6ulv16588.1 kV=0.12 Vminpu=0.8 Vmaxpu=1.2 model=1 kva=0.745005 pf=1.0 Phases=1
New Load.load_p6ulv16588_2 conn=wye bus1=p6ulv16588.2 kV=0.12 Vminpu=0.8 Vmaxpu=1.2 model=1 kva=0.745005 pf=1.0 Phases=1
New Load.load_p6ulv16589_1 conn=wye bus1=p6ulv16589.1 kV=0.12 Vminpu=0.8 Vmaxpu=1.2 model=1 kva=1.510015 pf=1.0 Phases=1
New Load.load_p6ulv16589_2 conn=wye bus1=p6ulv16589.2 kV=0.12 Vminpu=0.8 Vmaxpu=1.2 model=1 kva=1.510015 pf=1.0 Phases=1
New Load.load_p6ulv16590_1 conn=wye bus1=p6ulv16590.1 kV=0.12 Vminpu=0.8 Vmaxpu=1.2 model=1 kva=0.735005 pf=1.0 Phases=1
New Load.load_p6ulv16590_2 conn=wye bus1=p6ulv16590.2 kV=0.12 Vminpu=0.8 Vmaxpu=1.2 model=1 kva=0.735005 pf=1.0 Phases=1
New Load.load_p6ulv16591_1 conn=wye bus1=p6ulv16591.1 kV=0.12 Vminpu=0.8 Vmaxpu=1.2 model=1 kva=0.4700045 pf=1.0 Phases=1
New Load.load_p6ulv16591_2 conn=wye bus1=p6ulv16591.2 kV=0.12 Vminpu=0.8 Vmaxpu=1.2 model=1 kva=0.4700045 pf=1.0 Phases=1
New Load.load_p6ulv16592_1 conn=wye bus1=p6ulv16592.1 kV=0.12 Vminpu=0.8 Vmaxpu=1.2 model=1 kva=1.540015 pf=1.0 Phases=1
New Load.load_p6ulv16592_2 conn=wye bus1=p6ulv16592.2 kV=0.12 Vminpu=0.8 Vmaxpu=1.2 model=1 kva=1.540015 pf=1.0 Phases=1
New Load.load_p6ulv16593_1 conn=wye bus1=p6ulv16593.1 kV=0.12 Vminpu=0.8 Vmaxpu=1.2 model=1 kva=1.405015 pf=1.0 Phases=1
New Load.load_p6ulv16593_2 conn=wye bus1=p6ulv16593.2 kV=0.12 Vminpu=0.8 Vmaxpu=1.2 model=1 kva=1.405015 pf=1.0 Phases=1
New Load.load_p6ulv16594_1 conn=wye bus1=p6ulv16594.1 kV=0.12 Vminpu=0.8 Vmaxpu=1.2 model=1 kva=0.4350045 pf=1.0 Phases=1
New Load.load_p6ulv16595_2 conn=wye bus1=p6ulv16595.2 kV=0.12 Vminpu=0.8 Vmaxpu=1.2 model=1 kva=1.480015 pf=1.0 Phases=1
New Load.load_p6ulv16596_1 conn=wye bus1=p6ulv16596.1 kV=0.12 Vminpu=0.8 Vmaxpu=1.2 model=1 kva=1.0600100000000001 pf=1.0 Phases=1
New Load.load_p6ulv16599_1 conn=wye bus1=p6ulv16599.1 kV=0.12 Vminpu=0.8 Vmaxpu=1.2 model=1 kva=1.545015 pf=1.0 Phases=1
New Load.load_p6ulv16599_2 conn=wye bus1=p6ulv16599.2 kV=0.12 Vminpu=0.8 Vmaxpu=1.2 model=1 kva=1.545015 pf=1.0 Phases=1
New Load.load_p6ulv16600_1 conn=wye bus1=p6ulv16600.1 kV=0.12 Vminpu=0.8 Vmaxpu=1.2 model=1 kva=0.89001 pf=1.0 Phases=1
New Load.load_p6ulv16602_2 conn=wye bus1=p6ulv16602.2 kV=0.12 Vminpu=0.8 Vmaxpu=1.2 model=1 kva=0.545005 pf=1.0 Phases=1
New Load.load_p6ulv16603_1 conn=wye bus1=p6ulv16603.1 kV=0.12 Vminpu=0.8 Vmaxpu=1.2 model=1 kva=0.88001 pf=1.0 Phases=1
New Load.load_p6ulv16603_2 conn=wye bus1=p6ulv16603.2 kV=0.12 Vminpu=0.8 Vmaxpu=1.2 model=1 kva=0.88001 pf=1.0 Phases=1
New Load.load_p6ulv16605_1 conn=wye bus1=p6ulv16605.1 kV=0.12 Vminpu=0.8 Vmaxpu=1.2 model=1 kva=1.10501 pf=1.0 Phases=1
New Load.load_p6ulv16606_2 conn=wye bus1=p6ulv16606.2 kV=0.12 Vminpu=0.8 Vmaxpu=1.2 model=1 kva=0.380004 pf=1.0 Phases=1
New Load.load_p6ulv16607_2 conn=wye bus1=p6ulv16607.2 kV=0.12 Vminpu=0.8 Vmaxpu=1.2 model=1 kva=0.94501 pf=1.0 Phases=1
New Load.load_p6ulv16608_1 conn=wye bus1=p6ulv16608.1 kV=0.12 Vminpu=0.8 Vmaxpu=1.2 model=1 kva=1.94502 pf=1.0 Phases=1
New Load.load_p6ulv16608_2 conn=wye bus1=p6ulv16608.2 kV=0.12 Vminpu=0.8 Vmaxpu=1.2 model=1 kva=1.94502 pf=1.0 Phases=1
New Load.load_p6ulv16609_1 conn=wye bus1=p6ulv16609.1 kV=0.12 Vminpu=0.8 Vmaxpu=1.2 model=1 kva=1.12001 pf=1.0 Phases=1
New Load.load_p6ulv16609_2 conn=wye bus1=p6ulv16609.2 kV=0.12 Vminpu=0.8 Vmaxpu=1.2 model=1 kva=1.12001 pf=1.0 Phases=1
New Load.load_p6ulv16610_1 conn=wye bus1=p6ulv16610.1 kV=0.12 Vminpu=0.8 Vmaxpu=1.2 model=1 kva=1.03501 pf=1.0 Phases=1
New Load.load_p6ulv16610_2 conn=wye bus1=p6ulv16610.2 kV=0.12 Vminpu=0.8 Vmaxpu=1.2 model=1 kva=1.03501 pf=1.0 Phases=1
New Load.load_p6ulv16611_1 conn=wye bus1=p6ulv16611.1 kV=0.12 Vminpu=0.8 Vmaxpu=1.2 model=1 kva=1.5250150000000002 pf=1.0 Phases=1
New Load.load_p6ulv16611_2 conn=wye bus1=p6ulv16611.2 kV=0.12 Vminpu=0.8 Vmaxpu=1.2 model=1 kva=1.5250150000000002 pf=1.0 Phases=1
New Load.load_p6ulv16612_1 conn=wye bus1=p6ulv16612.1 kV=0.12 Vminpu=0.8 Vmaxpu=1.2 model=1 kva=1.14001 pf=1.0 Phases=1
New Load.load_p6ulv16612_2 conn=wye bus1=p6ulv16612.2 kV=0.12 Vminpu=0.8 Vmaxpu=1.2 model=1 kva=1.14001 pf=1.0 Phases=1
New Load.load_p6ulv16613_1 conn=wye bus1=p6ulv16613.1 kV=0.12 Vminpu=0.8 Vmaxpu=1.2 model=1 kva=0.96501 pf=1.0 Phases=1
New Load.load_p6ulv16815_1 conn=wye bus1=p6ulv16815.1 kV=0.12 Vminpu=0.8 Vmaxpu=1.2 model=1 kva=0.630005 pf=1.0 Phases=1
New Load.load_p6ulv16815_2 conn=wye bus1=p6ulv16815.2 kV=0.12 Vminpu=0.8 Vmaxpu=1.2 model=1 kva=0.630005 pf=1.0 Phases=1
New Load.load_p6ulv16816_1 conn=wye bus1=p6ulv16816.1 kV=0.12 Vminpu=0.8 Vmaxpu=1.2 model=1 kva=2.610025 pf=1.0 Phases=1
New Load.load_p6ulv16817_1 conn=wye bus1=p6ulv16817.1 kV=0.12 Vminpu=0.8 Vmaxpu=1.2 model=1 kva=0.3500035 pf=1.0 Phases=1
New Load.load_p6ulv16817_2 conn=wye bus1=p6ulv16817.2 kV=0.12 Vminpu=0.8 Vmaxpu=1.2 model=1 kva=0.3500035 pf=1.0 Phases=1
New Load.load_p6ulv16818_2 conn=wye bus1=p6ulv16818.2 kV=0.12 Vminpu=0.8 Vmaxpu=1.2 model=1 kva=1.80502 pf=1.0 Phases=1
New Load.load_p6ulv16819_1 conn=wye bus1=p6ulv16819.1 kV=0.12 Vminpu=0.8 Vmaxpu=1.2 model=1 kva=0.8650100000000001 pf=1.0 Phases=1
New Load.load_p6ulv16820_1 conn=wye bus1=p6ulv16820.1 kV=0.12 Vminpu=0.8 Vmaxpu=1.2 model=1 kva=0.500005 pf=1.0 Phases=1
New Load.load_p6ulv16820_2 conn=wye bus1=p6ulv16820.2 kV=0.12 Vminpu=0.8 Vmaxpu=1.2 model=1 kva=0.500005 pf=1.0 Phases=1
New Load.load_p6ulv16821_1 conn=wye bus1=p6ulv16821.1 kV=0.12 Vminpu=0.8 Vmaxpu=1.2 model=1 kva=0.210002 pf=1.0 Phases=1
New Load.load_p6ulv16821_2 conn=wye bus1=p6ulv16821.2 kV=0.12 Vminpu=0.8 Vmaxpu=1.2 model=1 kva=0.210002 pf=1.0 Phases=1
New Load.load_p6ulv16822_1 conn=wye bus1=p6ulv16822.1 kV=0.12 Vminpu=0.8 Vmaxpu=1.2 model=1 kva=1.305015 pf=1.0 Phases=1
New Load.load_p6ulv16822_2 conn=wye bus1=p6ulv16822.2 kV=0.12 Vminpu=0.8 Vmaxpu=1.2 model=1 kva=1.305015 pf=1.0 Phases=1
New Load.load_p6ulv16823_1 conn=wye bus1=p6ulv16823.1 kV=0.12 Vminpu=0.8 Vmaxpu=1.2 model=1 kva=1.2650150000000002 pf=1.0 Phases=1
New Load.load_p6ulv16823_2 conn=wye bus1=p6ulv16823.2 kV=0.12 Vminpu=0.8 Vmaxpu=1.2 model=1 kva=1.2650150000000002 pf=1.0 Phases=1
New Load.load_p6ulv16824_1 conn=wye bus1=p6ulv16824.1 kV=0.12 Vminpu=0.8 Vmaxpu=1.2 model=1 kva=0.700005 pf=1.0 Phases=1
New Load.load_p6ulv16824_2 conn=wye bus1=p6ulv16824.2 kV=0.12 Vminpu=0.8 Vmaxpu=1.2 model=1 kva=0.700005 pf=1.0 Phases=1
New Load.load_p6ulv16825_2 conn=wye bus1=p6ulv16825.2 kV=0.12 Vminpu=0.8 Vmaxpu=1.2 model=1 kva=1.1750100000000003 pf=1.0 Phases=1
New Load.load_p6ulv16826_1 conn=wye bus1=p6ulv16826.1 kV=0.12 Vminpu=0.8 Vmaxpu=1.2 model=1 kva=0.4400045 pf=1.0 Phases=1
New Load.load_p6ulv16826_2 conn=wye bus1=p6ulv16826.2 kV=0.12 Vminpu=0.8 Vmaxpu=1.2 model=1 kva=0.4400045 pf=1.0 Phases=1
New Load.load_p6ulv16827_1 conn=wye bus1=p6ulv16827.1 kV=0.12 Vminpu=0.8 Vmaxpu=1.2 model=1 kva=5.87005 pf=1.0 Phases=1
New Load.load_p6ulv16827_2 conn=wye bus1=p6ulv16827.2 kV=0.12 Vminpu=0.8 Vmaxpu=1.2 model=1 kva=5.87005 pf=1.0 Phases=1
New Load.load_p6ulv16828_1 conn=wye bus1=p6ulv16828.1 kV=0.12 Vminpu=0.8 Vmaxpu=1.2 model=1 kva=0.515005 pf=1.0 Phases=1
New Load.load_p6ulv16829_1 conn=wye bus1=p6ulv16829.1 kV=0.12 Vminpu=0.8 Vmaxpu=1.2 model=1 kva=1.23501 pf=1.0 Phases=1
New Load.load_p6ulv16829_2 conn=wye bus1=p6ulv16829.2 kV=0.12 Vminpu=0.8 Vmaxpu=1.2 model=1 kva=1.23501 pf=1.0 Phases=1
New Load.load_p6ulv16831_1 conn=wye bus1=p6ulv16831.1 kV=0.12 Vminpu=0.8 Vmaxpu=1.2 model=1 kva=1.8550200000000001 pf=1.0 Phases=1
New Load.load_p6ulv16832_1 conn=wye bus1=p6ulv16832.1 kV=0.12 Vminpu=0.8 Vmaxpu=1.2 model=1 kva=1.21001 pf=1.0 Phases=1
New Load.load_p6ulv16833_2 conn=wye bus1=p6ulv16833.2 kV=0.12 Vminpu=0.8 Vmaxpu=1.2 model=1 kva=1.290015 pf=1.0 Phases=1
New Load.load_p6ulv16834_1 conn=wye bus1=p6ulv16834.1 kV=0.12 Vminpu=0.8 Vmaxpu=1.2 model=1 kva=0.725005 pf=1.0 Phases=1
New Load.load_p6ulv16834_2 conn=wye bus1=p6ulv16834.2 kV=0.12 Vminpu=0.8 Vmaxpu=1.2 model=1 kva=0.725005 pf=1.0 Phases=1
New Load.load_p6ulv16835_1 conn=wye bus1=p6ulv16835.1 kV=0.12 Vminpu=0.8 Vmaxpu=1.2 model=1 kva=1.295015 pf=1.0 Phases=1
New Load.load_p6ulv16835_2 conn=wye bus1=p6ulv16835.2 kV=0.12 Vminpu=0.8 Vmaxpu=1.2 model=1 kva=1.295015 pf=1.0 Phases=1
New Load.load_p6ulv16836_1 conn=wye bus1=p6ulv16836.1 kV=0.12 Vminpu=0.8 Vmaxpu=1.2 model=1 kva=0.605005 pf=1.0 Phases=1
New Load.load_p6ulv16837_1 conn=wye bus1=p6ulv16837.1 kV=0.12 Vminpu=0.8 Vmaxpu=1.2 model=1 kva=0.33000350000000006 pf=1.0 Phases=1
New Load.load_p6ulv16837_2 conn=wye bus1=p6ulv16837.2 kV=0.12 Vminpu=0.8 Vmaxpu=1.2 model=1 kva=0.33000350000000006 pf=1.0 Phases=1
New Load.load_p6ulv16839_1 conn=wye bus1=p6ulv16839.1 kV=0.12 Vminpu=0.8 Vmaxpu=1.2 model=1 kva=0.605005 pf=1.0 Phases=1
New Load.load_p6ulv16839_2 conn=wye bus1=p6ulv16839.2 kV=0.12 Vminpu=0.8 Vmaxpu=1.2 model=1 kva=0.605005 pf=1.0 Phases=1
New Load.load_p6ulv16840_1 conn=wye bus1=p6ulv16840.1 kV=0.12 Vminpu=0.8 Vmaxpu=1.2 model=1 kva=2.605025 pf=1.0 Phases=1
New Load.load_p6ulv16841_1 conn=wye bus1=p6ulv16841.1 kV=0.12 Vminpu=0.8 Vmaxpu=1.2 model=1 kva=0.81501 pf=1.0 Phases=1
New Load.load_p6ulv16841_2 conn=wye bus1=p6ulv16841.2 kV=0.12 Vminpu=0.8 Vmaxpu=1.2 model=1 kva=0.81501 pf=1.0 Phases=1
New Load.load_p6ulv16842_1 conn=wye bus1=p6ulv16842.1 kV=0.12 Vminpu=0.8 Vmaxpu=1.2 model=1 kva=0.95501 pf=1.0 Phases=1
New Load.load_p6ulv16842_2 conn=wye bus1=p6ulv16842.2 kV=0.12 Vminpu=0.8 Vmaxpu=1.2 model=1 kva=0.95501 pf=1.0 Phases=1
New Load.load_p6ulv16843_2 conn=wye bus1=p6ulv16843.2 kV=0.12 Vminpu=0.8 Vmaxpu=1.2 model=1 kva=2.89003 pf=1.0 Phases=1
New Load.load_p6ulv17770_2 conn=wye bus1=p6ulv17770.2 kV=0.12 Vminpu=0.8 Vmaxpu=1.2 model=1 kva=0.78001 pf=1.0 Phases=1
New Load.load_p6ulv17771_2 conn=wye bus1=p6ulv17771.2 kV=0.12 Vminpu=0.8 Vmaxpu=1.2 model=1 kva=1.18001 pf=1.0 Phases=1
New Load.load_p6ulv17772_2 conn=wye bus1=p6ulv17772.2 kV=0.12 Vminpu=0.8 Vmaxpu=1.2 model=1 kva=1.2650150000000002 pf=1.0 Phases=1
New Load.load_p6ulv19749_1 conn=wye bus1=p6ulv19749.1 kV=0.12 Vminpu=0.8 Vmaxpu=1.2 model=1 kva=3.330035 pf=1.0 Phases=1
New Load.load_p6ulv19750_1 conn=wye bus1=p6ulv19750.1 kV=0.12 Vminpu=0.8 Vmaxpu=1.2 model=1 kva=0.75501 pf=1.0 Phases=1
New Load.load_p6ulv19750_2 conn=wye bus1=p6ulv19750.2 kV=0.12 Vminpu=0.8 Vmaxpu=1.2 model=1 kva=0.75501 pf=1.0 Phases=1
New Load.load_p6ulv19751_2 conn=wye bus1=p6ulv19751.2 kV=0.12 Vminpu=0.8 Vmaxpu=1.2 model=1 kva=0.570005 pf=1.0 Phases=1
New Load.load_p6ulv19752_1 conn=wye bus1=p6ulv19752.1 kV=0.12 Vminpu=0.8 Vmaxpu=1.2 model=1 kva=1.01001 pf=1.0 Phases=1
New Load.load_p6ulv19753_1 conn=wye bus1=p6ulv19753.1 kV=0.12 Vminpu=0.8 Vmaxpu=1.2 model=1 kva=1.575015 pf=1.0 Phases=1
New Load.load_p6ulv19753_2 conn=wye bus1=p6ulv19753.2 kV=0.12 Vminpu=0.8 Vmaxpu=1.2 model=1 kva=1.575015 pf=1.0 Phases=1
New Load.load_p6ulv19754_1 conn=wye bus1=p6ulv19754.1 kV=0.12 Vminpu=0.8 Vmaxpu=1.2 model=1 kva=2.555025 pf=1.0 Phases=1
New Load.load_p6ulv19755_2 conn=wye bus1=p6ulv19755.2 kV=0.12 Vminpu=0.8 Vmaxpu=1.2 model=1 kva=0.77001 pf=1.0 Phases=1
New Load.load_p6ulv19756_1 conn=wye bus1=p6ulv19756.1 kV=0.12 Vminpu=0.8 Vmaxpu=1.2 model=1 kva=0.710005 pf=1.0 Phases=1
New Load.load_p6ulv19757_1 conn=wye bus1=p6ulv19757.1 kV=0.12 Vminpu=0.8 Vmaxpu=1.2 model=1 kva=0.4700045 pf=1.0 Phases=1
New Load.load_p6ulv19758_2 conn=wye bus1=p6ulv19758.2 kV=0.12 Vminpu=0.8 Vmaxpu=1.2 model=1 kva=0.520005 pf=1.0 Phases=1
New Load.load_p6ulv22871_2 conn=wye bus1=p6ulv22871.2 kV=0.12 Vminpu=0.8 Vmaxpu=1.2 model=1 kva=0.285003 pf=1.0 Phases=1
New Load.load_p6ulv23211_1 conn=wye bus1=p6ulv23211.1 kV=0.12 Vminpu=0.8 Vmaxpu=1.2 model=1 kva=0.585005 pf=1.0 Phases=1
New Load.load_p6ulv23211_2 conn=wye bus1=p6ulv23211.2 kV=0.12 Vminpu=0.8 Vmaxpu=1.2 model=1 kva=0.585005 pf=1.0 Phases=1
New Load.load_p6ulv23212_2 conn=wye bus1=p6ulv23212.2 kV=0.12 Vminpu=0.8 Vmaxpu=1.2 model=1 kva=1.395015 pf=1.0 Phases=1
New Load.load_p6ulv23213_1 conn=wye bus1=p6ulv23213.1 kV=0.12 Vminpu=0.8 Vmaxpu=1.2 model=1 kva=1.04001 pf=1.0 Phases=1
New Load.load_p6ulv23214_1 conn=wye bus1=p6ulv23214.1 kV=0.12 Vminpu=0.8 Vmaxpu=1.2 model=1 kva=0.670005 pf=1.0 Phases=1
New Load.load_p6ulv23214_2 conn=wye bus1=p6ulv23214.2 kV=0.12 Vminpu=0.8 Vmaxpu=1.2 model=1 kva=0.670005 pf=1.0 Phases=1
New Load.load_p6ulv23215_1 conn=wye bus1=p6ulv23215.1 kV=0.12 Vminpu=0.8 Vmaxpu=1.2 model=1 kva=1.03501 pf=1.0 Phases=1
New Load.load_p6ulv23215_2 conn=wye bus1=p6ulv23215.2 kV=0.12 Vminpu=0.8 Vmaxpu=1.2 model=1 kva=1.03501 pf=1.0 Phases=1
New Load.load_p6ulv23216_1 conn=wye bus1=p6ulv23216.1 kV=0.12 Vminpu=0.8 Vmaxpu=1.2 model=1 kva=0.80501 pf=1.0 Phases=1
New Load.load_p6ulv23216_2 conn=wye bus1=p6ulv23216.2 kV=0.12 Vminpu=0.8 Vmaxpu=1.2 model=1 kva=0.80501 pf=1.0 Phases=1
New Load.load_p6ulv23217_1 conn=wye bus1=p6ulv23217.1 kV=0.12 Vminpu=0.8 Vmaxpu=1.2 model=1 kva=0.2550025 pf=1.0 Phases=1
New Load.load_p6ulv23218_1 conn=wye bus1=p6ulv23218.1 kV=0.12 Vminpu=0.8 Vmaxpu=1.2 model=1 kva=0.8600100000000002 pf=1.0 Phases=1
New Load.load_p6ulv23218_2 conn=wye bus1=p6ulv23218.2 kV=0.12 Vminpu=0.8 Vmaxpu=1.2 model=1 kva=0.8600100000000002 pf=1.0 Phases=1
New Load.load_p6ulv23219_1 conn=wye bus1=p6ulv23219.1 kV=0.12 Vminpu=0.8 Vmaxpu=1.2 model=1 kva=1.0500100000000003 pf=1.0 Phases=1
New Load.load_p6ulv23220_1 conn=wye bus1=p6ulv23220.1 kV=0.12 Vminpu=0.8 Vmaxpu=1.2 model=1 kva=0.720005 pf=1.0 Phases=1
New Load.load_p6ulv23220_2 conn=wye bus1=p6ulv23220.2 kV=0.12 Vminpu=0.8 Vmaxpu=1.2 model=1 kva=0.720005 pf=1.0 Phases=1
New Load.load_p6ulv23221_1 conn=wye bus1=p6ulv23221.1 kV=0.12 Vminpu=0.8 Vmaxpu=1.2 model=1 kva=1.92002 pf=1.0 Phases=1
New Load.load_p6ulv23222_2 conn=wye bus1=p6ulv23222.2 kV=0.12 Vminpu=0.8 Vmaxpu=1.2 model=1 kva=0.81501 pf=1.0 Phases=1
New Load.load_p6ulv23224_2 conn=wye bus1=p6ulv23224.2 kV=0.12 Vminpu=0.8 Vmaxpu=1.2 model=1 kva=0.79001 pf=1.0 Phases=1
New Load.load_p6ulv23225_1 conn=wye bus1=p6ulv23225.1 kV=0.12 Vminpu=0.8 Vmaxpu=1.2 model=1 kva=1.330015 pf=1.0 Phases=1
New Load.load_p6ulv23225_2 conn=wye bus1=p6ulv23225.2 kV=0.12 Vminpu=0.8 Vmaxpu=1.2 model=1 kva=1.330015 pf=1.0 Phases=1
New Load.load_p6ulv23226_2 conn=wye bus1=p6ulv23226.2 kV=0.12 Vminpu=0.8 Vmaxpu=1.2 model=1 kva=1.580015 pf=1.0 Phases=1
New Load.load_p6ulv23227_2 conn=wye bus1=p6ulv23227.2 kV=0.12 Vminpu=0.8 Vmaxpu=1.2 model=1 kva=1.0600100000000001 pf=1.0 Phases=1
New Load.load_p6ulv23228_1 conn=wye bus1=p6ulv23228.1 kV=0.12 Vminpu=0.8 Vmaxpu=1.2 model=1 kva=0.80001 pf=1.0 Phases=1
New Load.load_p6ulv23228_2 conn=wye bus1=p6ulv23228.2 kV=0.12 Vminpu=0.8 Vmaxpu=1.2 model=1 kva=0.80001 pf=1.0 Phases=1
New Load.load_p6ulv23229_1 conn=wye bus1=p6ulv23229.1 kV=0.12 Vminpu=0.8 Vmaxpu=1.2 model=1 kva=0.6500050000000002 pf=1.0 Phases=1
New Load.load_p6ulv23229_2 conn=wye bus1=p6ulv23229.2 kV=0.12 Vminpu=0.8 Vmaxpu=1.2 model=1 kva=0.6500050000000002 pf=1.0 Phases=1
New Load.load_p6ulv23230_1 conn=wye bus1=p6ulv23230.1 kV=0.12 Vminpu=0.8 Vmaxpu=1.2 model=1 kva=0.93001 pf=1.0 Phases=1
New Load.load_p6ulv23231_1 conn=wye bus1=p6ulv23231.1 kV=0.12 Vminpu=0.8 Vmaxpu=1.2 model=1 kva=0.78501 pf=1.0 Phases=1
New Load.load_p6ulv23231_2 conn=wye bus1=p6ulv23231.2 kV=0.12 Vminpu=0.8 Vmaxpu=1.2 model=1 kva=0.78501 pf=1.0 Phases=1
New Load.load_p6ulv23232_1 conn=wye bus1=p6ulv23232.1 kV=0.12 Vminpu=0.8 Vmaxpu=1.2 model=1 kva=0.680005 pf=1.0 Phases=1
New Load.load_p6ulv23232_2 conn=wye bus1=p6ulv23232.2 kV=0.12 Vminpu=0.8 Vmaxpu=1.2 model=1 kva=0.680005 pf=1.0 Phases=1
New Load.load_p6ulv23346_2 conn=wye bus1=p6ulv23346.2 kV=0.12 Vminpu=0.8 Vmaxpu=1.2 model=1 kva=1.13501 pf=1.0 Phases=1
New Load.load_p6ulv23347_1 conn=wye bus1=p6ulv23347.1 kV=0.12 Vminpu=0.8 Vmaxpu=1.2 model=1 kva=0.695005 pf=1.0 Phases=1
New Load.load_p6ulv23347_2 conn=wye bus1=p6ulv23347.2 kV=0.12 Vminpu=0.8 Vmaxpu=1.2 model=1 kva=0.695005 pf=1.0 Phases=1
New Load.load_p6ulv23348_1 conn=wye bus1=p6ulv23348.1 kV=0.12 Vminpu=0.8 Vmaxpu=1.2 model=1 kva=1.490015 pf=1.0 Phases=1
New Load.load_p6ulv23349_1 conn=wye bus1=p6ulv23349.1 kV=0.12 Vminpu=0.8 Vmaxpu=1.2 model=1 kva=1.365015 pf=1.0 Phases=1
New Load.load_p6ulv23349_2 conn=wye bus1=p6ulv23349.2 kV=0.12 Vminpu=0.8 Vmaxpu=1.2 model=1 kva=1.365015 pf=1.0 Phases=1
New Load.load_p6ulv23350_1 conn=wye bus1=p6ulv23350.1 kV=0.12 Vminpu=0.8 Vmaxpu=1.2 model=1 kva=1.445015 pf=1.0 Phases=1
New Load.load_p6ulv23350_2 conn=wye bus1=p6ulv23350.2 kV=0.12 Vminpu=0.8 Vmaxpu=1.2 model=1 kva=1.445015 pf=1.0 Phases=1
New Load.load_p6ulv23351_1 conn=wye bus1=p6ulv23351.1 kV=0.12 Vminpu=0.8 Vmaxpu=1.2 model=1 kva=1.09001 pf=1.0 Phases=1
New Load.load_p6ulv23352_1 conn=wye bus1=p6ulv23352.1 kV=0.12 Vminpu=0.8 Vmaxpu=1.2 model=1 kva=1.81002 pf=1.0 Phases=1
New Load.load_p6ulv23353_2 conn=wye bus1=p6ulv23353.2 kV=0.12 Vminpu=0.8 Vmaxpu=1.2 model=1 kva=0.645005 pf=1.0 Phases=1
New Load.load_p6ulv23354_2 conn=wye bus1=p6ulv23354.2 kV=0.12 Vminpu=0.8 Vmaxpu=1.2 model=1 kva=0.275003 pf=1.0 Phases=1
New Load.load_p6ulv23355_2 conn=wye bus1=p6ulv23355.2 kV=0.12 Vminpu=0.8 Vmaxpu=1.2 model=1 kva=0.645005 pf=1.0 Phases=1
New Load.load_p6ulv23356_1 conn=wye bus1=p6ulv23356.1 kV=0.12 Vminpu=0.8 Vmaxpu=1.2 model=1 kva=0.620005 pf=1.0 Phases=1
New Load.load_p6ulv23356_2 conn=wye bus1=p6ulv23356.2 kV=0.12 Vminpu=0.8 Vmaxpu=1.2 model=1 kva=0.620005 pf=1.0 Phases=1
New Load.load_p6ulv23357_1 conn=wye bus1=p6ulv23357.1 kV=0.12 Vminpu=0.8 Vmaxpu=1.2 model=1 kva=1.15001 pf=1.0 Phases=1
New Load.load_p6ulv23358_1 conn=wye bus1=p6ulv23358.1 kV=0.12 Vminpu=0.8 Vmaxpu=1.2 model=1 kva=0.87501 pf=1.0 Phases=1
New Load.load_p6ulv23358_2 conn=wye bus1=p6ulv23358.2 kV=0.12 Vminpu=0.8 Vmaxpu=1.2 model=1 kva=0.87501 pf=1.0 Phases=1
New Load.load_p6ulv23359_1 conn=wye bus1=p6ulv23359.1 kV=0.12 Vminpu=0.8 Vmaxpu=1.2 model=1 kva=0.675005 pf=1.0 Phases=1
New Load.load_p6ulv23359_2 conn=wye bus1=p6ulv23359.2 kV=0.12 Vminpu=0.8 Vmaxpu=1.2 model=1 kva=0.675005 pf=1.0 Phases=1
New Load.load_p6ulv23378_1 conn=wye bus1=p6ulv23378.1 kV=0.12 Vminpu=0.8 Vmaxpu=1.2 model=1 kva=0.320003 pf=1.0 Phases=1
New Load.load_p6ulv23378_2 conn=wye bus1=p6ulv23378.2 kV=0.12 Vminpu=0.8 Vmaxpu=1.2 model=1 kva=0.320003 pf=1.0 Phases=1
New Load.load_p6ulv26800_2 conn=wye bus1=p6ulv26800.2 kV=0.12 Vminpu=0.8 Vmaxpu=1.2 model=1 kva=0.510005 pf=1.0 Phases=1
New Load.load_p6ulv26801_1 conn=wye bus1=p6ulv26801.1 kV=0.12 Vminpu=0.8 Vmaxpu=1.2 model=1 kva=6.41005 pf=1.0 Phases=1
New Load.load_p6ulv26802_1 conn=wye bus1=p6ulv26802.1 kV=0.12 Vminpu=0.8 Vmaxpu=1.2 model=1 kva=9.3701 pf=1.0 Phases=1
New Load.load_p6ulv26803_2 conn=wye bus1=p6ulv26803.2 kV=0.12 Vminpu=0.8 Vmaxpu=1.2 model=1 kva=1.670015 pf=1.0 Phases=1
New Load.load_p6ulv26804_1 conn=wye bus1=p6ulv26804.1 kV=0.12 Vminpu=0.8 Vmaxpu=1.2 model=1 kva=0.480005 pf=1.0 Phases=1
New Load.load_p6ulv26804_2 conn=wye bus1=p6ulv26804.2 kV=0.12 Vminpu=0.8 Vmaxpu=1.2 model=1 kva=0.480005 pf=1.0 Phases=1
New Load.load_p6ulv26805_1 conn=wye bus1=p6ulv26805.1 kV=0.12 Vminpu=0.8 Vmaxpu=1.2 model=1 kva=1.03001 pf=1.0 Phases=1
New Load.load_p6ulv26805_2 conn=wye bus1=p6ulv26805.2 kV=0.12 Vminpu=0.8 Vmaxpu=1.2 model=1 kva=1.03001 pf=1.0 Phases=1
New Load.load_p6ulv26806_2 conn=wye bus1=p6ulv26806.2 kV=0.12 Vminpu=0.8 Vmaxpu=1.2 model=1 kva=0.85501 pf=1.0 Phases=1
New Load.load_p6ulv26807_1 conn=wye bus1=p6ulv26807.1 kV=0.12 Vminpu=0.8 Vmaxpu=1.2 model=1 kva=0.735005 pf=1.0 Phases=1
New Load.load_p6ulv26807_2 conn=wye bus1=p6ulv26807.2 kV=0.12 Vminpu=0.8 Vmaxpu=1.2 model=1 kva=0.735005 pf=1.0 Phases=1
New Load.load_p6ulv26808_1 conn=wye bus1=p6ulv26808.1 kV=0.12 Vminpu=0.8 Vmaxpu=1.2 model=1 kva=2.2450200000000002 pf=1.0 Phases=1