New Generator.pv_load_p6ulv13786_1 conn=wye bus1=p6ulv13785.1 kV=0.12 model=7 kW=0.11271674967055043 kvar=-0.0 Phases=1
New Generator.pv_load_p6ulv13787_1 conn=wye bus1=p6ulv13787.1 kV=0.12 model=7 kW=0.17583775677331534 kvar=-0.0 Phases=1
New Generator.pv_load_p6ulv13787_2 conn=wye bus1=p6ulv13787.2 kV=0.12 model=7 kW=0.17583775677331534 kvar=-0.0 Phases=1
New Generator.pv_load_p6ulv13788_1 conn=wye bus1=p6ulv13788.1 kV=0.12 model=7 kW=0.2464743360000108 kvar=-0.0 Phases=1
New Generator.pv_load_p6ulv13789_1 conn=wye bus1=p6ulv13789.1 kV=0.12 model=7 kW=0.25699445375467284 kvar=-0.0 Phases=1
New Generator.pv_load_p6ulv13794_1 conn=wye bus1=p6ulv13794.1 kV=0.12 model=7 kW=0.8145652033736532 kvar=-0.0 Phases=1
New Generator.pv_load_p6ulv13795_2 conn=wye bus1=p6ulv13795.2 kV=0.12 model=7 kW=2.30844446764513 kvar=-0.0 Phases=1
New Generator.pv_load_p6ulv14405_1 conn=wye bus1=p6ulv14405.1 kV=0.12 model=7 kW=0.16381476505370163 kvar=-0.0 Phases=1
New Generator.pv_load_p6ulv14408_2 conn=wye bus1=p6ulv14408.2 kV=0.12 model=7 kW=0.24948008392991425 kvar=-0.0 Phases=1
New Generator.pv_load_p6ulv14409_1 conn=wye bus1=p6ulv14409.1 kV=0.12 model=7 kW=0.15930614315884653 kvar=-0.0 Phases=1
New Generator.pv_load_p6ulv14410_2 conn=wye bus1=p6ulv14410.2 kV=0.12 model=7 kW=0.18335212659807393 kvar=-0.0 Phases=1
New Generator.pv_load_p6ulv14411_1 conn=wye bus1=p6ulv14411.1 kV=0.12 model=7 kW=0.21190673193215645 kvar=-0.0 Phases=1
New Generator.pv_load_p6ulv14413_1 conn=wye bus1=p6ulv14413.1 kV=0.12 model=7 kW=0.10369935559344366 kvar=-0.0 Phases=1
New Generator.pv_load_p6ulv14415_2 conn=wye bus1=p6ulv14415.2 kV=0.12 model=7 kW=0.18635787452797736 kvar=-0.0 Phases=1
New Generator.pv_load_p6ulv14581_1 conn=wye bus1=p6ulv14581.1 kV=0.12 model=7 kW=0.470404059651781 kvar=-0.0 Phases=1
New Generator.pv_load_p6ulv14582_1 conn=wye bus1=p6ulv14582.1 kV=0.12 model=7 kW=0.21190673193215645 kvar=-0.0 Phases=1
New Generator.pv_load_p6ulv14586_1 conn=wye bus1=p6ulv14586.1 kV=0.12 model=7 kW=0.16832338694855678 kvar=-0.0 Phases=1
New Generator.pv_load_p6ulv14587_1 conn=wye bus1=p6ulv14587.1 kV=0.12 model=7 kW=0.8010393376890876 kvar=-0.0 Phases=1
New Generator.pv_load_p6ulv16574_1 conn=wye bus1=p6ulv16574.1 kV=0.12 model=7 kW=0.27352606736914165 kvar=-0.0 Phases=1
New Generator.pv_load_p6ulv16575_1 conn=wye bus1=p6ulv16575.1 kV=0.12 model=7 kW=0.4298264625980847 kvar=-0.0 Phases=1
New Generator.pv_load_p6ulv16576_1 conn=wye bus1=p6ulv16576.1 kV=0.12 model=7 kW=0.21942110175691504 kvar=-0.0 Phases=1
New Generator.pv_load_p6ulv16578_1 conn=wye bus1=p6ulv16578.1 kV=0.12 model=7 kW=0.4989586649858636 kvar=-0.0 Phases=1
New Generator.pv_load_p6ulv16579_1 conn=wye bus1=p6ulv16579.1 kV=0.12 model=7 kW=0.4403465803527467 kvar=-0.0 Phases=1
New Generator.pv_load_p6ulv16579_2 conn=wye bus1=p6ulv16579.2 kV=0.12 model=7 kW=0.4403465803527467 kvar=-0.0 Phases=1
New Generator.pv_load_p6ulv16580_1 conn=wye bus1=p6ulv16580.1 kV=0.12 model=7 kW=0.49294716912605674 kvar=-0.0 Phases=1
New Generator.pv_load_p6ulv16586_1 conn=wye bus1=p6ulv16586.1 kV=0.12 model=7 kW=0.22092397572186676 kvar=-0.0 Phases=1
New Generator.pv_load_p6ulv16590_2 conn=wye bus1=p6ulv16590.2 kV=0.12 model=7 kW=0.22092397572186676 kvar=-0.0 Phases=1
New Generator.pv_load_p6ulv16592_1 conn=wye bus1=p6ulv16592.1 kV=0.12 model=7 kW=0.4628896898270224 kvar=-0.0 Phases=1
New Generator.pv_load_p6ulv16592_2 conn=wye bus1=p6ulv16592.2 kV=0.12 model=7 kW=0.4628896898270224 kvar=-0.0 Phases=1
New Generator.pv_load_p6ulv16593_2 conn=wye bus1=p6ulv16593.2 kV=0.12 model=7 kW=0.42231209277332615 kvar=-0.0 Phases=1
New Generator.pv_load_p6ulv16596_2 conn=wye bus1=p6ulv16596.2 kV=0.12 model=7 kW=0.31861228631769306 kvar=-0.0 Phases=1
New Generator.pv_load_p6ulv16597_1 conn=wye bus1=p6ulv16597.1 kV=0.12 model=7 kW=0.28554905908875533 kvar=-0.0 Phases=1
New Generator.pv_load_p6ulv16600_1 conn=wye bus1=p6ulv16600.1 kV=0.12 model=7 kW=0.2675145715093348 kvar=-0.0 Phases=1
New Generator.pv_load_p6ulv16607_1 conn=wye bus1=p6ulv16607.1 kV=0.12 model=7 kW=0.28404618512380364 kvar=-0.0 Phases=1
New Generator.pv_load_p6ulv16607_2 conn=wye bus1=p6ulv16607.2 kV=0.12 model=7 kW=0.28404618512380364 kvar=-0.0 Phases=1
New Generator.pv_load_p6ulv16608_1 conn=wye bus1=p6ulv16608.1 kV=0.12 model=7 kW=0.584623983862076 kvar=-0.0 Phases=1
New Generator.pv_load_p6ulv16815_2 conn=wye bus1=p6ulv16815.2 kV=0.12 model=7 kW=0.18936362245788077 kvar=-0.0 Phases=1
New Generator.pv_load_p6ulv16816_1 conn=wye bus1=p6ulv16816.1 kV=0.12 model=7 kW=0.7845077240746188 kvar=-0.0 Phases=1
New Generator.pv_load_p6ulv16820_1 conn=wye bus1=p6ulv16820.1 kV=0.12 model=7 kW=0.15028889936913625 kvar=-0.0 Phases=1
New Generator.pv_load_p6ulv16820_2 conn=wye bus1=p6ulv16820.2 kV=0.12 model=7 kW=0.15028889936913625 kvar=-0.0 Phases=1
New Generator.pv_load_p6ulv16821_1 conn=wye bus1=p6ulv16821.1 kV=0.12 model=7 kW=0.06312130767755791 kvar=-0.0 Phases=1
New Generator.pv_load_p6ulv16822_1 conn=wye bus1=p6ulv16822.1 kV=0.12 model=7 kW=0.3922546134742919 kvar=-0.0 Phases=1
New Generator.pv_load_p6ulv16826_2 conn=wye bus1=p6ulv16826.2 kV=0.12 model=7 kW=0.1322542615023192 kvar=-0.0 Phases=1
New Generator.pv_load_p6ulv16828_2 conn=wye bus1=p6ulv16828.2 kV=0.12 model=7 kW=0.15479752126399138 kvar=-0.0 Phases=1
New Generator.pv_load_p6ulv16837_1 conn=wye bus1=p6ulv16837.1 kV=0.12 model=7 kW=0.09919073369858854 kvar=-0.0 Phases=1
New Generator.pv_load_p6ulv16838_2 conn=wye bus1=p6ulv16838.2 kV=0.12 model=7 kW=0.3997689832990505 kvar=-0.0 Phases=1
New Generator.pv_load_p6ulv16839_2 conn=wye bus1=p6ulv16839.2 kV=0.12 model=7 kW=0.1818492526331222 kvar=-0.0 Phases=1
New Generator.pv_load_p6ulv16840_1 conn=wye bus1=p6ulv16840.1 kV=0.12 model=7 kW=0.7830048501096671 kvar=-0.0 Phases=1
New Generator.pv_load_p6ulv16841_2 conn=wye bus1=p6ulv16841.2 kV=0.12 model=7 kW=0.2449714620350591 kvar=-0.0 Phases=1
New Generator.pv_load_p6ulv17771_1 conn=wye bus1=p6ulv17771.1 kV=0.12 model=7 kW=0.3546812614765341 kvar=-0.0 Phases=1
New Generator.pv_load_p6ulv17774_2 conn=wye bus1=p6ulv17774.2 kV=0.12 model=7 kW=0.14127150529202945 kvar=-0.0 Phases=1
New Generator.pv_load_p6ulv17775_1 conn=wye bus1=p6ulv17775.1 kV=0.12 model=7 kW=0.1232368674252124 kvar=-0.0 Phases=1
New Generator.pv_load_p6ulv19751_2 conn=wye bus1=p6ulv19751.2 kV=0.12 model=7 kW=0.17132913487846022 kvar=-0.0 Phases=1
New Generator.pv_load_p6ulv19752_1 conn=wye bus1=p6ulv19752.1 kV=0.12 model=7 kW=0.30358354666817594 kvar=-0.0 Phases=1
New Generator.pv_load_p6ulv19756_1 conn=wye bus1=p6ulv19756.1 kV=0.12 model=7 kW=0.21340960589710817 kvar=-0.0 Phases=1
New Generator.pv_load_p6ulv19756_2 conn=wye bus1=p6ulv19756.2 kV=0.12 model=7 kW=0.21340960589710817 kvar=-0.0 Phases=1
New Generator.pv_load_p6ulv22233_2 conn=wye bus1=p6ulv22233.2 kV=0.12 model=7 kW=0.6522533122849032 kvar=-0.0 Phases=1
New Generator.pv_load_p6ulv22871_2 conn=wye bus1=p6ulv22871.2 kV=0.12 model=7 kW=0.08566471772662661 kvar=-0.0 Phases=1
New Generator.pv_load_p6ulv23215_1 conn=wye bus1=p6ulv23215.1 kV=0.12 model=7 kW=0.31109791649293445 kvar=-0.0 Phases=1
New Generator.pv_load_p6ulv23218_1 conn=wye bus1=p6ulv23218.1 kV=0.12 model=7 kW=0.2584973277196246 kvar=-0.0 Phases=1
New Generator.pv_load_p6ulv23221_1 conn=wye bus1=p6ulv23221.1 kV=0.12 model=7 kW=0.5771096140373175 kvar=-0.0 Phases=1
New Generator.pv_load_p6ulv23222_1 conn=wye bus1=p6ulv23222.1 kV=0.12 model=7 kW=0.2449714620350591 kvar=-0.0 Phases=1
New Generator.pv_load_p6ulv23222_2 conn=wye bus1=p6ulv23222.2 kV=0.12 model=7 kW=0.2449714620350591 kvar=-0.0 Phases=1
New Generator.pv_load_p6ulv23223_2 conn=wye bus1=p6ulv23223.2 kV=0.12 model=7 kW=0.23144559635049367 kvar=-0.0 Phases=1
New Generator.pv_load_p6ulv23227_2 conn=wye bus1=p6ulv23227.2 kV=0.12 model=7 kW=0.31861228631769306 kvar=-0.0 Phases=1
New Generator.pv_load_p6ulv23228_1 conn=wye bus1=p6ulv23228.1 kV=0.12 model=7 kW=0.24046284014020394 kvar=-0.0 Phases=1
New Generator.pv_load_p6ulv23231_1 conn=wye bus1=p6ulv23231.1 kV=0.12 model=7 kW=0.23595421824534882 kvar=-0.0 Phases=1
New Generator.pv_load_p6ulv23346_1 conn=wye bus1=p6ulv23346.1 kV=0.12 model=7 kW=0.34115539579196874 kvar=-0.0 Phases=1
New Generator.pv_load_p6ulv23346_2 conn=wye bus1=p6ulv23346.2 kV=0.12 model=7 kW=0.34115539579196874 kvar=-0.0 Phases=1
New Generator.pv_load_p6ulv23352_1 conn=wye bus1=p6ulv23352.1 kV=0.12 model=7 kW=0.5440463868083798 kvar=-0.0 Phases=1
New Generator.pv_load_p6ulv23353_2 conn=wye bus1=p6ulv23353.2 kV=0.12 model=7 kW=0.19387224435273592 kvar=-0.0 Phases=1
New Generator.pv_load_p6ulv23356_1 conn=wye bus1=p6ulv23356.1 kV=0.12 model=7 kW=0.18635787452797736 kvar=-0.0 Phases=1
New Generator.pv_load_p6ulv23378_2 conn=wye bus1=p6ulv23378.2 kV=0.12 model=7 kW=0.09618483548128859 kvar=-0.0 Phases=1
New Generator.pv_load_p6ulv26800_1 conn=wye bus1=p6ulv26800.1 kV=0.12 model=7 kW=0.15329464729903966 kvar=-0.0 Phases=1
New Generator.pv_load_p6ulv26802_2 conn=wye bus1=p6ulv26802.2 kV=0.12 model=7 kW=2.816415867798809 kvar=-0.0 Phases=1
New Generator.pv_load_p6ulv26806_1 conn=wye bus1=p6ulv26806.1 kV=0.12 model=7 kW=0.25699445375467284 kvar=-0.0 Phases=1
New Generator.pv_load_p6ulv26807_2 conn=wye bus1=p6ulv26807.2 kV=0.12 model=7 kW=0.22092397572186676 kvar=-0.0 Phases=1
New Generator.pv_load_p6ulv26809_2 conn=wye bus1=p6ulv26809.2 kV=0.12 model=7 kW=1.0505194216190021 kvar=-0.0 Phases=1
