New Load.load_p6ulv246_1 conn=wye bus1=p6ulv246.1 kV=0.12 Vminpu=0.8 Vmaxpu=1.2 model=1 kva=0.680005 pf=1.0 Phases=1
New Load.load_p6ulv246_2 conn=wye bus1=p6ulv246.2 kV=0.12 Vminpu=0.8 Vmaxpu=1.2 model=1 kva=0.680005 pf=1.0 Phases=1
New Load.load_p6ulv247_2 conn=wye bus1=p6ulv247.2 kV=0.12 Vminpu=0.8 Vmaxpu=1.2 model=1 kva=0.91001 pf=1.0 Phases=1
New Load.load_p6ulv248_2 conn=wye bus1=p6ulv248.2 kV=0.12 Vminpu=0.8 Vmaxpu=1.2 model=1 kva=0.715005 pf=1.0 Phases=1
New Load.load_p6ulv249_1 conn=wye bus1=p6ulv249.1 kV=0.12 Vminpu=0.8 Vmaxpu=1.2 model=1 kva=0.88501 pf=1.0 Phases=1
New Load.load_p6ulv249_2 conn=wye bus1=p6ulv249.2 kV=0.12 Vminpu=0.8 Vmaxpu=1.2 model=1 kva=0.88501 pf=1.0 Phases=1
New Load.load_p6ulv250_1 conn=wye bus1=p6ulv250.1 kV=0.12 Vminpu=0.8 Vmaxpu=1.2 model=1 kva=1.13501 pf=1.0 Phases=1
New Load.load_p6ulv251_1 conn=wye bus1=p6ulv251.1 kV=0.12 Vminpu=0.8 Vmaxpu=1.2 model=1 kva=0.535005 pf=1.0 Phases=1
New Load.load_p6ulv251_2 conn=wye bus1=p6ulv251.2 kV=0.12 Vminpu=0.8 Vmaxpu=1.2 model=1 kva=0.535005 pf=1.0 Phases=1
New Load.load_p6ulv252_1 conn=wye bus1=p6ulv252.1 kV=0.12 Vminpu=0.8 Vmaxpu=1.2 model=1 kva=0.76501 pf=1.0 Phases=1
New Load.load_p6ulv252_2 conn=wye bus1=p6ulv252.2 kV=0.12 Vminpu=0.8 Vmaxpu=1.2 model=1 kva=0.76501 pf=1.0 Phases=1
New Load.load_p6ulv253_1 conn=wye bus1=p6ulv253.1 kV=0.12 Vminpu=0.8 Vmaxpu=1.2 model=1 kva=0.81001 pf=1.0 Phases=1
New Load.load_p6ulv254_1 conn=wye bus1=p6ulv254.1 kV=0.12 Vminpu=0.8 Vmaxpu=1.2 model=1 kva=0.680005 pf=1.0 Phases=1
New Load.load_p6ulv254_2 conn=wye bus1=p6ulv254.2 kV=0.12 Vminpu=0.8 Vmaxpu=1.2 model=1 kva=0.680005 pf=1.0 Phases=1
New Load.load_p6ulv255_1 conn=wye bus1=p6ulv255.1 kV=0.12 Vminpu=0.8 Vmaxpu=1.2 model=1 kva=0.97001 pf=1.0 Phases=1
New Load.load_p6ulv255_2 conn=wye bus1=p6ulv255.2 kV=0.12 Vminpu=0.8 Vmaxpu=1.2 model=1 kva=0.97001 pf=1.0 Phases=1
New Load.load_p6ulv256_1 conn=wye bus1=p6ulv256.1 kV=0.12 Vminpu=0.8 Vmaxpu=1.2 model=1 kva=0.89001 pf=1.0 Phases=1
New Load.load_p6ulv256_2 conn=wye bus1=p6ulv256.2 kV=0.12 Vminpu=0.8 Vmaxpu=1.2 model=1 kva=0.89001 pf=1.0 Phases=1
New Load.load_p6ulv258_1 conn=wye bus1=p6ulv258.1 kV=0.12 Vminpu=0.8 Vmaxpu=1.2 model=1 kva=0.88001 pf=1.0 Phases=1
New Load.load_p6ulv258_2 conn=wye bus1=p6ulv258.2 kV=0.12 Vminpu=0.8 Vmaxpu=1.2 model=1 kva=0.88001 pf=1.0 Phases=1
New Load.load_p6ulv259_1 conn=wye bus1=p6ulv259.1 kV=0.12 Vminpu=0.8 Vmaxpu=1.2 model=1 kva=0.78001 pf=1.0 Phases=1
New Load.load_p6ulv259_2 conn=wye bus1=p6ulv259.2 kV=0.12 Vminpu=0.8 Vmaxpu=1.2 model=1 kva=0.78001 pf=1.0 Phases=1
New Load.load_p6ulv260_2 conn=wye bus1=p6ulv260.2 kV=0.12 Vminpu=0.8 Vmaxpu=1.2 model=1 kva=1.14001 pf=1.0 Phases=1
New Load.load_p6ulv261_1 conn=wye bus1=p6ulv261.1 kV=0.12 Vminpu=0.8 Vmaxpu=1.2 model=1 kva=0.615005 pf=1.0 Phases=1
New Load.load_p6ulv261_2 conn=wye bus1=p6ulv261.2 kV=0.12 Vminpu=0.8 Vmaxpu=1.2 model=1 kva=0.615005 pf=1.0 Phases=1
New Load.load_p6ulv262_1 conn=wye bus1=p6ulv262.1 kV=0.12 Vminpu=0.8 Vmaxpu=1.2 model=1 kva=0.195002 pf=1.0 Phases=1
New Load.load_p6ulv262_2 conn=wye bus1=p6ulv262.2 kV=0.12 Vminpu=0.8 Vmaxpu=1.2 model=1 kva=0.195002 pf=1.0 Phases=1
New Load.load_p6ulv263_1 conn=wye bus1=p6ulv263.1 kV=0.12 Vminpu=0.8 Vmaxpu=1.2 model=1 kva=0.87501 pf=1.0 Phases=1
New Load.load_p6ulv263_2 conn=wye bus1=p6ulv263.2 kV=0.12 Vminpu=0.8 Vmaxpu=1.2 model=1 kva=0.87501 pf=1.0 Phases=1
New Load.load_p6ulv264_1 conn=wye bus1=p6ulv264.1 kV=0.12 Vminpu=0.8 Vmaxpu=1.2 model=1 kva=1.10001 pf=1.0 Phases=1
New Load.load_p6ulv264_2 conn=wye bus1=p6ulv264.2 kV=0.12 Vminpu=0.8 Vmaxpu=1.2 model=1 kva=1.10001 pf=1.0 Phases=1
New Load.load_p6ulv265_1 conn=wye bus1=p6ulv265.1 kV=0.12 Vminpu=0.8 Vmaxpu=1.2 model=1 kva=1.485015 pf=1.0 Phases=1
New Load.load_p6ulv265_2 conn=wye bus1=p6ulv265.2 kV=0.12 Vminpu=0.8 Vmaxpu=1.2 model=1 kva=1.485015 pf=1.0 Phases=1
New Load.load_p6ulv266_1 conn=wye bus1=p6ulv266.1 kV=0.12 Vminpu=0.8 Vmaxpu=1.2 model=1 kva=1.02001 pf=1.0 Phases=1
New Load.load_p6ulv266_2 conn=wye bus1=p6ulv266.2 kV=0.12 Vminpu=0.8 Vmaxpu=1.2 model=1 kva=1.02001 pf=1.0 Phases=1
New Load.load_p6ulv267_1 conn=wye bus1=p6ulv267.1 kV=0.12 Vminpu=0.8 Vmaxpu=1.2 model=1 kva=4.92505 pf=1.0 Phases=1
New Load.load_p6ulv268_1 conn=wye bus1=p6ulv268.1 kV=0.12 Vminpu=0.8 Vmaxpu=1.2 model=1 kva=3.14003 pf=1.0 Phases=1
New Load.load_p6ulv269_1 conn=wye bus1=p6ulv269.1 kV=0.12 Vminpu=0.8 Vmaxpu=1.2 model=1 kva=1.14001 pf=1.0 Phases=1
New Load.load_p6ulv270_2 conn=wye bus1=p6ulv270.2 kV=0.12 Vminpu=0.8 Vmaxpu=1.2 model=1 kva=0.3700035 pf=1.0 Phases=1
New Load.load_p6ulv271_1 conn=wye bus1=p6ulv271.1 kV=0.12 Vminpu=0.8 Vmaxpu=1.2 model=1 kva=0.4300045 pf=1.0 Phases=1
New Load.load_p6ulv271_2 conn=wye bus1=p6ulv271.2 kV=0.12 Vminpu=0.8 Vmaxpu=1.2 model=1 kva=0.4300045 pf=1.0 Phases=1
New Load.load_p6ulv272_1 conn=wye bus1=p6ulv272.1 kV=0.12 Vminpu=0.8 Vmaxpu=1.2 model=1 kva=0.6600050000000001 pf=1.0 Phases=1
New Load.load_p6ulv272_2 conn=wye bus1=p6ulv272.2 kV=0.12 Vminpu=0.8 Vmaxpu=1.2 model=1 kva=0.6600050000000001 pf=1.0 Phases=1
New Load.load_p6ulv274_1 conn=wye bus1=p6ulv274.1 kV=0.12 Vminpu=0.8 Vmaxpu=1.2 model=1 kva=0.290003 pf=1.0 Phases=1
New Load.load_p6ulv275_2 conn=wye bus1=p6ulv275.2 kV=0.12 Vminpu=0.8 Vmaxpu=1.2 model=1 kva=1.09001 pf=1.0 Phases=1
New Load.load_p6ulv276_1 conn=wye bus1=p6ulv276.1 kV=0.12 Vminpu=0.8 Vmaxpu=1.2 model=1 kva=0.6550050000000001 pf=1.0 Phases=1
New Load.load_p6ulv276_2 conn=wye bus1=p6ulv276.2 kV=0.12 Vminpu=0.8 Vmaxpu=1.2 model=1 kva=0.6550050000000001 pf=1.0 Phases=1
New Load.load_p6ulv277_2 conn=wye bus1=p6ulv277.2 kV=0.12 Vminpu=0.8 Vmaxpu=1.2 model=1 kva=0.78501 pf=1.0 Phases=1
New Load.load_p6ulv278_1 conn=wye bus1=p6ulv278.1 kV=0.12 Vminpu=0.8 Vmaxpu=1.2 model=1 kva=0.76001 pf=1.0 Phases=1
New Load.load_p6ulv279_1 conn=wye bus1=p6ulv279.1 kV=0.12 Vminpu=0.8 Vmaxpu=1.2 model=1 kva=0.91001 pf=1.0 Phases=1
New Load.load_p6ulv279_2 conn=wye bus1=p6ulv279.2 kV=0.12 Vminpu=0.8 Vmaxpu=1.2 model=1 kva=0.91001 pf=1.0 Phases=1
New Load.load_p6ulv280_1 conn=wye bus1=p6ulv280.1 kV=0.12 Vminpu=0.8 Vmaxpu=1.2 model=1 kva=0.645005 pf=1.0 Phases=1
New Load.load_p6ulv281_2 conn=wye bus1=p6ulv281.2 kV=0.12 Vminpu=0.8 Vmaxpu=1.2 model=1 kva=0.585005 pf=1.0 Phases=1
New Load.load_p6ulv282_1 conn=wye bus1=p6ulv282.1 kV=0.12 Vminpu=0.8 Vmaxpu=1.2 model=1 kva=1.2650150000000002 pf=1.0 Phases=1
New Load.load_p6ulv283_1 conn=wye bus1=p6ulv283.1 kV=0.12 Vminpu=0.8 Vmaxpu=1.2 model=1 kva=0.5250050000000002 pf=1.0 Phases=1
New Load.load_p6ulv283_2 conn=wye bus1=p6ulv283.2 kV=0.12 Vminpu=0.8 Vmaxpu=1.2 model=1 kva=0.5250050000000002 pf=1.0 Phases=1
New Load.load_p6ulv284_1 conn=wye bus1=p6ulv284.1 kV=0.12 Vminpu=0.8 Vmaxpu=1.2 model=1 kva=0.85001 pf=1.0 Phases=1
New Load.load_p6ulv284_2 conn=wye bus1=p6ulv284.2 kV=0.12 Vminpu=0.8 Vmaxpu=1.2 model=1 kva=0.85001 pf=1.0 Phases=1
New Load.load_p6ulv285_1 conn=wye bus1=p6ulv285.1 kV=0.12 Vminpu=0.8 Vmaxpu=1.2 model=1 kva=0.400004 pf=1.0 Phases=1
New Load.load_p6ulv285_2 conn=wye bus1=p6ulv285.2 kV=0.12 Vminpu=0.8 Vmaxpu=1.2 model=1 kva=0.400004 pf=1.0 Phases=1
New Load.load_p6ulv286_1 conn=wye bus1=p6ulv286.1 kV=0.12 Vminpu=0.8 Vmaxpu=1.2 model=1 kva=0.91001 pf=1.0 Phases=1
New Load.load_p6ulv286_2 conn=wye bus1=p6ulv286.2 kV=0.12 Vminpu=0.8 Vmaxpu=1.2 model=1 kva=0.91001 pf=1.0 Phases=1
New Load.load_p6ulv287_1 conn=wye bus1=p6ulv287.1 kV=0.12 Vminpu=0.8 Vmaxpu=1.2 model=1 kva=0.8700100000000001 pf=1.0 Phases=1
New Load.load_p6ulv287_2 conn=wye bus1=p6ulv287.2 kV=0.12 Vminpu=0.8 Vmaxpu=1.2 model=1 kva=0.8700100000000001 pf=1.0 Phases=1
New Load.load_p6ulv288_1 conn=wye bus1=p6ulv288.1 kV=0.12 Vminpu=0.8 Vmaxpu=1.2 model=1 kva=0.78001 pf=1.0 Phases=1
New Load.load_p6ulv288_2 conn=wye bus1=p6ulv288.2 kV=0.12 Vminpu=0.8 Vmaxpu=1.2 model=1 kva=0.78001 pf=1.0 Phases=1
New Load.load_p6ulv289_1 conn=wye bus1=p6ulv289.1 kV=0.12 Vminpu=0.8 Vmaxpu=1.2 model=1 kva=0.555005 pf=1.0 Phases=1
New Load.load_p6ulv292_2 conn=wye bus1=p6ulv292.2 kV=0.12 Vminpu=0.8 Vmaxpu=1.2 model=1 kva=0.89001 pf=1.0 Phases=1
New Load.load_p6ulv294_1 conn=wye bus1=p6ulv294.1 kV=0.12 Vminpu=0.8 Vmaxpu=1.2 model=1 kva=0.620005 pf=1.0 Phases=1
New Load.load_p6ulv294_2 conn=wye bus1=p6ulv294.2 kV=0.12 Vminpu=0.8 Vmaxpu=1.2 model=1 kva=0.620005 pf=1.0 Phases=1
New Load.load_p6ulv295_1 conn=wye bus1=p6ulv295.1 kV=0.12 Vminpu=0.8 Vmaxpu=1.2 model=1 kva=1.13501 pf=1.0 Phases=1
New Load.load_p6ulv295_2 conn=wye bus1=p6ulv295.2 kV=0.12 Vminpu=0.8 Vmaxpu=1.2 model=1 kva=1.13501 pf=1.0 Phases=1
New Load.load_p6ulv296_1 conn=wye bus1=p6ulv296.1 kV=0.12 Vminpu=0.8 Vmaxpu=1.2 model=1 kva=0.76501 pf=1.0 Phases=1
New Load.load_p6ulv296_2 conn=wye bus1=p6ulv296.2 kV=0.12 Vminpu=0.8 Vmaxpu=1.2 model=1 kva=0.76501 pf=1.0 Phases=1
New Load.load_p6ulv299_1 conn=wye bus1=p6ulv299.1 kV=0.12 Vminpu=0.8 Vmaxpu=1.2 model=1 kva=0.585005 pf=1.0 Phases=1
New Load.load_p6ulv299_2 conn=wye bus1=p6ulv299.2 kV=0.12 Vminpu=0.8 Vmaxpu=1.2 model=1 kva=0.585005 pf=1.0 Phases=1
New Load.load_p6ulv300_2 conn=wye bus1=p6ulv300.2 kV=0.12 Vminpu=0.8 Vmaxpu=1.2 model=1 kva=0.695005 pf=1.0 Phases=1
New Load.load_p6ulv301_1 conn=wye bus1=p6ulv301.1 kV=0.12 Vminpu=0.8 Vmaxpu=1.2 model=1 kva=8.1601 pf=1.0 Phases=1
New Load.load_p6ulv301_2 conn=wye bus1=p6ulv301.2 kV=0.12 Vminpu=0.8 Vmaxpu=1.2 model=1 kva=8.1601 pf=1.0 Phases=1
New Load.load_p6ulv302_1 conn=wye bus1=p6ulv302.1 kV=0.12 Vminpu=0.8 Vmaxpu=1.2 model=1 kva=1.08001 pf=1.0 Phases=1
New Load.load_p6ulv302_2 conn=wye bus1=p6ulv302.2 kV=0.12 Vminpu=0.8 Vmaxpu=1.2 model=1 kva=1.08001 pf=1.0 Phases=1
New Load.load_p6ulv303_2 conn=wye bus1=p6ulv303.2 kV=0.12 Vminpu=0.8 Vmaxpu=1.2 model=1 kva=1.05501 pf=1.0 Phases=1
New Load.load_p6ulv304_1 conn=wye bus1=p6ulv304.1 kV=0.12 Vminpu=0.8 Vmaxpu=1.2 model=1 kva=0.88001 pf=1.0 Phases=1
New Load.load_p6ulv304_2 conn=wye bus1=p6ulv304.2 kV=0.12 Vminpu=0.8 Vmaxpu=1.2 model=1 kva=0.88001 pf=1.0 Phases=1
New Load.load_p6ulv305_1 conn=wye bus1=p6ulv305.1 kV=0.12 Vminpu=0.8 Vmaxpu=1.2 model=1 kva=0.580005 pf=1.0 Phases=1
New Load.load_p6ulv305_2 conn=wye bus1=p6ulv305.2 kV=0.12 Vminpu=0.8 Vmaxpu=1.2 model=1 kva=0.580005 pf=1.0 Phases=1
New Load.load_p6ulv306_1 conn=wye bus1=p6ulv306.1 kV=0.12 Vminpu=0.8 Vmaxpu=1.2 model=1 kva=0.725005 pf=1.0 Phases=1
New Load.load_p6ulv306_2 conn=wye bus1=p6ulv306.2 kV=0.12 Vminpu=0.8 Vmaxpu=1.2 model=1 kva=0.725005 pf=1.0 Phases=1
New Load.load_p6ulv307_1 conn=wye bus1=p6ulv307.1 kV=0.12 Vminpu=0.8 Vmaxpu=1.2 model=1 kva=0.75001 pf=1.0 Phases=1
New Load.load_p6ulv307_2 conn=wye bus1=p6ulv307.2 kV=0.12 Vminpu=0.8 Vmaxpu=1.2 model=1 kva=0.75001 pf=1.0 Phases=1
New Load.load_p6ulv308_1 conn=wye bus1=p6ulv308.1 kV=0.12 Vminpu=0.8 Vmaxpu=1.2 model=1 kva=0.390004 pf=1.0 Phases=1
New Load.load_p6ulv308_2 conn=wye bus1=p6ulv308.2 kV=0.12 Vminpu=0.8 Vmaxpu=1.2 model=1 kva=0.390004 pf=1.0 Phases=1
New Load.load_p6ulv309_1 conn=wye bus1=p6ulv309.1 kV=0.12 Vminpu=0.8 Vmaxpu=1.2 model=1 kva=0.91001 pf=1.0 Phases=1
New Load.load_p6ulv309_2 conn=wye bus1=p6ulv309.2 kV=0.12 Vminpu=0.8 Vmaxpu=1.2 model=1 kva=0.91001 pf=1.0 Phases=1
New Load.load_p6ulv310_1 conn=wye bus1=p6ulv310.1 kV=0.12 Vminpu=0.8 Vmaxpu=1.2 model=1 kva=0.93001 pf=1.0 Phases=1
New Load.load_p6ulv311_1 conn=wye bus1=p6ulv311.1 kV=0.12 Vminpu=0.8 Vmaxpu=1.2 model=1 kva=0.84501 pf=1.0 Phases=1
New Load.load_p6ulv311_2 conn=wye bus1=p6ulv311.2 kV=0.12 Vminpu=0.8 Vmaxpu=1.2 model=1 kva=0.84501 pf=1.0 Phases=1
New Load.load_p6ulv312_1 conn=wye bus1=p6ulv312.1 kV=0.12 Vminpu=0.8 Vmaxpu=1.2 model=1 kva=1.385015 pf=1.0 Phases=1
New Load.load_p6ulv312_2 conn=wye bus1=p6ulv312.2 kV=0.12 Vminpu=0.8 Vmaxpu=1.2 model=1 kva=1.385015 pf=1.0 Phases=1
New Load.load_p6ulv313_1 conn=wye bus1=p6ulv313.1 kV=0.12 Vminpu=0.8 Vmaxpu=1.2 model=1 kva=1.10001 pf=1.0 Phases=1
New Load.load_p6ulv314_2 conn=wye bus1=p6ulv314.2 kV=0.12 Vminpu=0.8 Vmaxpu=1.2 model=1 kva=0.745005 pf=1.0 Phases=1
New Load.load_p6ulv315_1 conn=wye bus1=p6ulv315.1 kV=0.12 Vminpu=0.8 Vmaxpu=1.2 model=1 kva=0.91001 pf=1.0 Phases=1
New Load.load_p6ulv315_2 conn=wye bus1=p6ulv315.2 kV=0.12 Vminpu=0.8 Vmaxpu=1.2 model=1 kva=0.91001 pf=1.0 Phases=1
New Load.load_p6ulv316_1 conn=wye bus1=p6ulv316.1 kV=0.12 Vminpu=0.8 Vmaxpu=1.2 model=1 kva=0.81001 pf=1.0 Phases=1
New Load.load_p6ulv317_2 conn=wye bus1=p6ulv317.2 kV=0.12 Vminpu=0.8 Vmaxpu=1.2 model=1 kva=2.00002 pf=1.0 Phases=1
New Load.load_p6ulv318_1 conn=wye bus1=p6ulv318.1 kV=0.12 Vminpu=0.8 Vmaxpu=1.2 model=1 kva=0.415004 pf=1.0 Phases=1
New Load.load_p6ulv318_2 conn=wye bus1=p6ulv318.2 kV=0.12 Vminpu=0.8 Vmaxpu=1.2 model=1 kva=0.415004 pf=1.0 Phases=1
New Load.load_p6ulv319_2 conn=wye bus1=p6ulv319.2 kV=0.12 Vminpu=0.8 Vmaxpu=1.2 model=1 kva=1.09001 pf=1.0 Phases=1
New Load.load_p6ulv320_1 conn=wye bus1=p6ulv320.1 kV=0.12 Vminpu=0.8 Vmaxpu=1.2 model=1 kva=0.410004 pf=1.0 Phases=1
New Load.load_p6ulv320_2 conn=wye bus1=p6ulv320.2 kV=0.12 Vminpu=0.8 Vmaxpu=1.2 model=1 kva=0.410004 pf=1.0 Phases=1
New Load.load_p6ulv321_1 conn=wye bus1=p6ulv321.1 kV=0.12 Vminpu=0.8 Vmaxpu=1.2 model=1 kva=1.355015 pf=1.0 Phases=1
New Load.load_p6ulv321_2 conn=wye bus1=p6ulv321.2 kV=0.12 Vminpu=0.8 Vmaxpu=1.2 model=1 kva=1.355015 pf=1.0 Phases=1
New Load.load_p6ulv322_2 conn=wye bus1=p6ulv322.2 kV=0.12 Vminpu=0.8 Vmaxpu=1.2 model=1 kva=1.1850100000000001 pf=1.0 Phases=1
New Load.load_p6ulv323_1 conn=wye bus1=p6ulv323.1 kV=0.12 Vminpu=0.8 Vmaxpu=1.2 model=1 kva=0.3700035 pf=1.0 Phases=1
New Load.load_p6ulv323_2 conn=wye bus1=p6ulv323.2 kV=0.12 Vminpu=0.8 Vmaxpu=1.2 model=1 kva=0.3700035 pf=1.0 Phases=1
New Load.load_p6ulv325_1 conn=wye bus1=p6ulv325.1 kV=0.12 Vminpu=0.8 Vmaxpu=1.2 model=1 kva=1.13501 pf=1.0 Phases=1
New Load.load_p6ulv326_1 conn=wye bus1=p6ulv324.1 kV=0.12 Vminpu=0.8 Vmaxpu=1.2 model=1 kva=1.695015 pf=1.0 Phases=1
New Load.load_p6ulv326_2 conn=wye bus1=p6ulv324.2 kV=0.12 Vminpu=0.8 Vmaxpu=1.2 model=1 kva=1.695015 pf=1.0 Phases=1
New Load.load_p6ulv327_1 conn=wye bus1=p6ulv327.1 kV=0.12 Vminpu=0.8 Vmaxpu=1.2 model=1 kva=0.680005 pf=1.0 Phases=1
New Load.load_p6ulv328_1 conn=wye bus1=p6ulv328.1 kV=0.12 Vminpu=0.8 Vmaxpu=1.2 model=1 kva=0.81001 pf=1.0 Phases=1
New Load.load_p6ulv328_2 conn=wye bus1=p6ulv328.2 kV=0.12 Vminpu=0.8 Vmaxpu=1.2 model=1 kva=0.81001 pf=1.0 Phases=1
New Load.load_p6ulv330_1 conn=wye bus1=p6ulv330.1 kV=0.12 Vminpu=0.8 Vmaxpu=1.2 model=1 kva=1.325015 pf=1.0 Phases=1
New Load.load_p6ulv330_2 conn=wye bus1=p6ulv330.2 kV=0.12 Vminpu=0.8 Vmaxpu=1.2 model=1 kva=1.325015 pf=1.0 Phases=1
New Load.load_p6ulv331_1 conn=wye bus1=p6ulv331.1 kV=0.12 Vminpu=0.8 Vmaxpu=1.2 model=1 kva=1.285015 pf=1.0 Phases=1
New Load.load_p6ulv331_2 conn=wye bus1=p6ulv331.2 kV=0.12 Vminpu=0.8 Vmaxpu=1.2 model=1 kva=1.285015 pf=1.0 Phases=1
New Load.load_p6ulv332_2 conn=wye bus1=p6ulv332.2 kV=0.12 Vminpu=0.8 Vmaxpu=1.2 model=1 kva=0.79001 pf=1.0 Phases=1
New Load.load_p6ulv333_2 conn=wye bus1=p6ulv332.2 kV=0.12 Vminpu=0.8 Vmaxpu=1.2 model=1 kva=0.82001 pf=1.0 Phases=1
New Load.load_p6ulv334_2 conn=wye bus1=p6ulv334.2 kV=0.12 Vminpu=0.8 Vmaxpu=1.2 model=1 kva=0.29500300000000007 pf=1.0 Phases=1
New Load.load_p6ulv335_1 conn=wye bus1=p6ulv335.1 kV=0.12 Vminpu=0.8 Vmaxpu=1.2 model=1 kva=0.89501 pf=1.0 Phases=1
New Load.load_p6ulv336_1 conn=wye bus1=p6ulv336.1 kV=0.12 Vminpu=0.8 Vmaxpu=1.2 model=1 kva=0.84501 pf=1.0 Phases=1
New Load.load_p6ulv336_2 conn=wye bus1=p6ulv336.2 kV=0.12 Vminpu=0.8 Vmaxpu=1.2 model=1 kva=0.84501 pf=1.0 Phases=1
New Load.load_p6ulv337_1 conn=wye bus1=p6ulv337.1 kV=0.12 Vminpu=0.8 Vmaxpu=1.2 model=1 kva=0.4350045 pf=1.0 Phases=1
New Load.load_p6ulv337_2 conn=wye bus1=p6ulv337.2 kV=0.12 Vminpu=0.8 Vmaxpu=1.2 model=1 kva=0.4350045 pf=1.0 Phases=1
New Load.load_p6ulv338_1 conn=wye bus1=p6ulv338.1 kV=0.12 Vminpu=0.8 Vmaxpu=1.2 model=1 kva=0.85001 pf=1.0 Phases=1
New Load.load_p6ulv339_1 conn=wye bus1=p6ulv339.1 kV=0.12 Vminpu=0.8 Vmaxpu=1.2 model=1 kva=0.49500500000000003 pf=1.0 Phases=1
New Load.load_p6ulv339_2 conn=wye bus1=p6ulv339.2 kV=0.12 Vminpu=0.8 Vmaxpu=1.2 model=1 kva=0.49500500000000003 pf=1.0 Phases=1
New Load.load_p6ulv340_2 conn=wye bus1=p6ulv340.2 kV=0.12 Vminpu=0.8 Vmaxpu=1.2 model=1 kva=0.585005 pf=1.0 Phases=1
New Load.load_p6ulv341_1 conn=wye bus1=p6ulv341.1 kV=0.12 Vminpu=0.8 Vmaxpu=1.2 model=1 kva=0.720005 pf=1.0 Phases=1
New Load.load_p6ulv341_2 conn=wye bus1=p6ulv341.2 kV=0.12 Vminpu=0.8 Vmaxpu=1.2 model=1 kva=0.720005 pf=1.0 Phases=1
New Load.load_p6ulv342_2 conn=wye bus1=p6ulv342.2 kV=0.12 Vminpu=0.8 Vmaxpu=1.2 model=1 kva=0.85501 pf=1.0 Phases=1
New Load.load_p6ulv343_1 conn=wye bus1=p6ulv343.1 kV=0.12 Vminpu=0.8 Vmaxpu=1.2 model=1 kva=1.285015 pf=1.0 Phases=1
New Load.load_p6ulv343_2 conn=wye bus1=p6ulv343.2 kV=0.12 Vminpu=0.8 Vmaxpu=1.2 model=1 kva=1.285015 pf=1.0 Phases=1
New Load.load_p6ulv344_1 conn=wye bus1=p6ulv344.1 kV=0.12 Vminpu=0.8 Vmaxpu=1.2 model=1 kva=1.04001 pf=1.0 Phases=1
New Load.load_p6ulv344_2 conn=wye bus1=p6ulv344.2 kV=0.12 Vminpu=0.8 Vmaxpu=1.2 model=1 kva=1.04001 pf=1.0 Phases=1
New Load.load_p6ulv345_1 conn=wye bus1=p6ulv345.1 kV=0.12 Vminpu=0.8 Vmaxpu=1.2 model=1 kva=0.81501 pf=1.0 Phases=1
New Load.load_p6ulv345_2 conn=wye bus1=p6ulv345.2 kV=0.12 Vminpu=0.8 Vmaxpu=1.2 model=1 kva=0.81501 pf=1.0 Phases=1
New Load.load_p6ulv346_1 conn=wye bus1=p6ulv345.1 kV=0.12 Vminpu=0.8 Vmaxpu=1.2 model=1 kva=0.81501 pf=1.0 Phases=1
New Load.load_p6ulv348_1 conn=wye bus1=p6ulv348.1 kV=0.12 Vminpu=0.8 Vmaxpu=1.2 model=1 kva=0.9850100000000002 pf=1.0 Phases=1
New Load.load_p6ulv348_2 conn=wye bus1=p6ulv348.2 kV=0.12 Vminpu=0.8 Vmaxpu=1.2 model=1 kva=0.9850100000000002 pf=1.0 Phases=1
New Load.load_p6ulv349_1 conn=wye bus1=p6ulv349.1 kV=0.12 Vminpu=0.8 Vmaxpu=1.2 model=1 kva=0.87501 pf=1.0 Phases=1
New Load.load_p6ulv349_2 conn=wye bus1=p6ulv349.2 kV=0.12 Vminpu=0.8 Vmaxpu=1.2 model=1 kva=0.87501 pf=1.0 Phases=1
New Load.load_p6ulv350_1 conn=wye bus1=p6ulv350.1 kV=0.12 Vminpu=0.8 Vmaxpu=1.2 model=1 kva=0.695005 pf=1.0 Phases=1
New Load.load_p6ulv350_2 conn=wye bus1=p6ulv350.2 kV=0.12 Vminpu=0.8 Vmaxpu=1.2 model=1 kva=0.695005 pf=1.0 Phases=1
New Load.load_p6ulv351_1 conn=wye bus1=p6ulv351.1 kV=0.12 Vminpu=0.8 Vmaxpu=1.2 model=1 kva=6.005050000000001 pf=1.0 Phases=1
New Load.load_p6ulv351_2 conn=wye bus1=p6ulv351.2 kV=0.12 Vminpu=0.8 Vmaxpu=1.2 model=1 kva=6.005050000000001 pf=1.0 Phases=1
New Load.load_p6ulv352_1 conn=wye bus1=p6ulv352.1 kV=0.12 Vminpu=0.8 Vmaxpu=1.2 model=1 kva=1.08501 pf=1.0 Phases=1
New Load.load_p6ulv352_2 conn=wye bus1=p6ulv352.2 kV=0.12 Vminpu=0.8 Vmaxpu=1.2 model=1 kva=1.08501 pf=1.0 Phases=1
New Load.load_p6ulv353_1 conn=wye bus1=p6ulv353.1 kV=0.12 Vminpu=0.8 Vmaxpu=1.2 model=1 kva=0.88001 pf=1.0 Phases=1
New Load.load_p6ulv353_2 conn=wye bus1=p6ulv353.2 kV=0.12 Vminpu=0.8 Vmaxpu=1.2 model=1 kva=0.88001 pf=1.0 Phases=1
New Load.load_p6ulv354_2 conn=wye bus1=p6ulv354.2 kV=0.12 Vminpu=0.8 Vmaxpu=1.2 model=1 kva=5.18005 pf=1.0 Phases=1
New Load.load_p6ulv355_1 conn=wye bus1=p6ulv355.1 kV=0.12 Vminpu=0.8 Vmaxpu=1.2 model=1 kva=2.00502 pf=1.0 Phases=1
New Load.load_p6ulv355_2 conn=wye bus1=p6ulv355.2 kV=0.12 Vminpu=0.8 Vmaxpu=1.2 model=1 kva=2.00502 pf=1.0 Phases=1
New Load.load_p6ulv356_1 conn=wye bus1=p6ulv356.1 kV=0.12 Vminpu=0.8 Vmaxpu=1.2 model=1 kva=4.570045 pf=1.0 Phases=1
New Load.load_p6ulv356_2 conn=wye bus1=p6ulv356.2 kV=0.12 Vminpu=0.8 Vmaxpu=1.2 model=1 kva=4.570045 pf=1.0 Phases=1
New Load.load_p6ulv357_1 conn=wye bus1=p6ulv357.1 kV=0.12 Vminpu=0.8 Vmaxpu=1.2 model=1 kva=1.610015 pf=1.0 Phases=1
New Load.load_p6ulv357_2 conn=wye bus1=p6ulv357.2 kV=0.12 Vminpu=0.8 Vmaxpu=1.2 model=1 kva=1.610015 pf=1.0 Phases=1
New Load.load_p6ulv358_1 conn=wye bus1=p6ulv358.1 kV=0.12 Vminpu=0.8 Vmaxpu=1.2 model=1 kva=0.8700100000000001 pf=1.0 Phases=1
New Load.load_p6ulv358_2 conn=wye bus1=p6ulv358.2 kV=0.12 Vminpu=0.8 Vmaxpu=1.2 model=1 kva=0.8700100000000001 pf=1.0 Phases=1
New Load.load_p6ulv359_2 conn=wye bus1=p6ulv359.2 kV=0.12 Vminpu=0.8 Vmaxpu=1.2 model=1 kva=0.680005 pf=1.0 Phases=1
New Load.load_p6ulv360_1 conn=wye bus1=p6ulv360.1 kV=0.12 Vminpu=0.8 Vmaxpu=1.2 model=1 kva=1.95002 pf=1.0 Phases=1
New Load.load_p6ulv360_2 conn=wye bus1=p6ulv360.2 kV=0.12 Vminpu=0.8 Vmaxpu=1.2 model=1 kva=1.95002 pf=1.0 Phases=1
New Load.load_p6ulv361_2 conn=wye bus1=p6ulv361.2 kV=0.12 Vminpu=0.8 Vmaxpu=1.2 model=1 kva=0.680005 pf=1.0 Phases=1
New Load.load_p6ulv362_2 conn=wye bus1=p6ulv362.2 kV=0.12 Vminpu=0.8 Vmaxpu=1.2 model=1 kva=0.89001 pf=1.0 Phases=1
New Load.load_p6ulv363_1 conn=wye bus1=p6ulv363.1 kV=0.12 Vminpu=0.8 Vmaxpu=1.2 model=1 kva=0.540005 pf=1.0 Phases=1
New Load.load_p6ulv363_2 conn=wye bus1=p6ulv363.2 kV=0.12 Vminpu=0.8 Vmaxpu=1.2 model=1 kva=0.540005 pf=1.0 Phases=1
New Load.load_p6ulv364_2 conn=wye bus1=p6ulv364.2 kV=0.12 Vminpu=0.8 Vmaxpu=1.2 model=1 kva=0.550005 pf=1.0 Phases=1
New Load.load_p6ulv365_1 conn=wye bus1=p6ulv365.1 kV=0.12 Vminpu=0.8 Vmaxpu=1.2 model=1 kva=0.8700100000000001 pf=1.0 Phases=1
New Load.load_p6ulv365_2 conn=wye bus1=p6ulv365.2 kV=0.12 Vminpu=0.8 Vmaxpu=1.2 model=1 kva=0.8700100000000001 pf=1.0 Phases=1
New Load.load_p6ulv366_1 conn=wye bus1=p6ulv366.1 kV=0.12 Vminpu=0.8 Vmaxpu=1.2 model=1 kva=1.11001 pf=1.0 Phases=1
New Load.load_p6ulv367_2 conn=wye bus1=p6ulv367.2 kV=0.12 Vminpu=0.8 Vmaxpu=1.2 model=1 kva=0.620005 pf=1.0 Phases=1
New Load.load_p6ulv369_1 conn=wye bus1=p6ulv369.1 kV=0.12 Vminpu=0.8 Vmaxpu=1.2 model=1 kva=0.78001 pf=1.0 Phases=1
New Load.load_p6ulv369_2 conn=wye bus1=p6ulv369.2 kV=0.12 Vminpu=0.8 Vmaxpu=1.2 model=1 kva=0.78001 pf=1.0 Phases=1
New Load.load_p6ulv370_1 conn=wye bus1=p6ulv370.1 kV=0.12 Vminpu=0.8 Vmaxpu=1.2 model=1 kva=0.400004 pf=1.0 Phases=1
New Load.load_p6ulv370_2 conn=wye bus1=p6ulv370.2 kV=0.12 Vminpu=0.8 Vmaxpu=1.2 model=1 kva=0.400004 pf=1.0 Phases=1
New Load.load_p6ulv371_1 conn=wye bus1=p6ulv371.1 kV=0.12 Vminpu=0.8 Vmaxpu=1.2 model=1 kva=0.640005 pf=1.0 Phases=1
New Load.load_p6ulv372_1 conn=wye bus1=p6ulv372.1 kV=0.12 Vminpu=0.8 Vmaxpu=1.2 model=1 kva=0.520005 pf=1.0 Phases=1
New Load.load_p6ulv372_2 conn=wye bus1=p6ulv372.2 kV=0.12 Vminpu=0.8 Vmaxpu=1.2 model=1 kva=0.520005 pf=1.0 Phases=1
New Load.load_p6ulv373_1 conn=wye bus1=p6ulv373.1 kV=0.12 Vminpu=0.8 Vmaxpu=1.2 model=1 kva=1.00501 pf=1.0 Phases=1
New Load.load_p6ulv373_2 conn=wye bus1=p6ulv373.2 kV=0.12 Vminpu=0.8 Vmaxpu=1.2 model=1 kva=1.00501 pf=1.0 Phases=1
New Load.load_p6ulv374_1 conn=wye bus1=p6ulv374.1 kV=0.12 Vminpu=0.8 Vmaxpu=1.2 model=1 kva=0.280003 pf=1.0 Phases=1
New Load.load_p6ulv374_2 conn=wye bus1=p6ulv374.2 kV=0.12 Vminpu=0.8 Vmaxpu=1.2 model=1 kva=0.280003 pf=1.0 Phases=1
New Load.load_p6ulv375_1 conn=wye bus1=p6ulv375.1 kV=0.12 Vminpu=0.8 Vmaxpu=1.2 model=1 kva=0.575005 pf=1.0 Phases=1
New Load.load_p6ulv375_2 conn=wye bus1=p6ulv375.2 kV=0.12 Vminpu=0.8 Vmaxpu=1.2 model=1 kva=0.575005 pf=1.0 Phases=1
New Load.load_p6ulv376_1 conn=wye bus1=p6ulv376.1 kV=0.12 Vminpu=0.8 Vmaxpu=1.2 model=1 kva=0.415004 pf=1.0 Phases=1
New Load.load_p6ulv377_1 conn=wye bus1=p6ulv377.1 kV=0.12 Vminpu=0.8 Vmaxpu=1.2 model=1 kva=1.04501 pf=1.0 Phases=1
New Load.load_p6ulv377_2 conn=wye bus1=p6ulv377.2 kV=0.12 Vminpu=0.8 Vmaxpu=1.2 model=1 kva=1.04501 pf=1.0 Phases=1
New Load.load_p6ulv378_1 conn=wye bus1=p6ulv378.1 kV=0.12 Vminpu=0.8 Vmaxpu=1.2 model=1 kva=0.9850100000000002 pf=1.0 Phases=1
New Load.load_p6ulv379_1 conn=wye bus1=p6ulv379.1 kV=0.12 Vminpu=0.8 Vmaxpu=1.2 model=1 kva=0.29500300000000007 pf=1.0 Phases=1
New Load.load_p6ulv379_2 conn=wye bus1=p6ulv379.2 kV=0.12 Vminpu=0.8 Vmaxpu=1.2 model=1 kva=0.29500300000000007 pf=1.0 Phases=1
New Load.load_p6ulv380_1 conn=wye bus1=p6ulv380.1 kV=0.12 Vminpu=0.8 Vmaxpu=1.2 model=1 kva=0.195002 pf=1.0 Phases=1
New Load.load_p6ulv380_2 conn=wye bus1=p6ulv380.2 kV=0.12 Vminpu=0.8 Vmaxpu=1.2 model=1 kva=0.195002 pf=1.0 Phases=1
New Load.load_p6ulv381_1 conn=wye bus1=p6ulv381.1 kV=0.12 Vminpu=0.8 Vmaxpu=1.2 model=1 kva=1.15001 pf=1.0 Phases=1
New Load.load_p6ulv382_1 conn=wye bus1=p6ulv382.1 kV=0.12 Vminpu=0.8 Vmaxpu=1.2 model=1 kva=0.415004 pf=1.0 Phases=1
New Load.load_p6ulv382_2 conn=wye bus1=p6ulv382.2 kV=0.12 Vminpu=0.8 Vmaxpu=1.2 model=1 kva=0.415004 pf=1.0 Phases=1
New Load.load_p6ulv383_1 conn=wye bus1=p6ulv383.1 kV=0.12 Vminpu=0.8 Vmaxpu=1.2 model=1 kva=0.76001 pf=1.0 Phases=1
New Load.load_p6ulv383_2 conn=wye bus1=p6ulv383.2 kV=0.12 Vminpu=0.8 Vmaxpu=1.2 model=1 kva=0.76001 pf=1.0 Phases=1
New Load.load_p6ulv384_1 conn=wye bus1=p6ulv384.1 kV=0.12 Vminpu=0.8 Vmaxpu=1.2 model=1 kva=0.84001 pf=1.0 Phases=1
New Load.load_p6ulv384_2 conn=wye bus1=p6ulv384.2 kV=0.12 Vminpu=0.8 Vmaxpu=1.2 model=1 kva=0.84001 pf=1.0 Phases=1
New Load.load_p6ulv385_1 conn=wye bus1=p6ulv385.1 kV=0.12 Vminpu=0.8 Vmaxpu=1.2 model=1 kva=0.93001 pf=1.0 Phases=1
New Load.load_p6ulv385_2 conn=wye bus1=p6ulv385.2 kV=0.12 Vminpu=0.8 Vmaxpu=1.2 model=1 kva=0.93001 pf=1.0 Phases=1
New Load.load_p6ulv386_1 conn=wye bus1=p6ulv386.1 kV=0.12 Vminpu=0.8 Vmaxpu=1.2 model=1 kva=0.585005 pf=1.0 Phases=1
New Load.load_p6ulv386_2 conn=wye bus1=p6ulv386.2 kV=0.12 Vminpu=0.8 Vmaxpu=1.2 model=1 kva=0.585005 pf=1.0 Phases=1
New Load.load_p6ulv387_2 conn=wye bus1=p6ulv387.2 kV=0.12 Vminpu=0.8 Vmaxpu=1.2 model=1 kva=1.570015 pf=1.0 Phases=1
New Load.load_p6ulv388_1 conn=wye bus1=p6ulv388.1 kV=0.12 Vminpu=0.8 Vmaxpu=1.2 model=1 kva=1.07501 pf=1.0 Phases=1
New Load.load_p6ulv388_2 conn=wye bus1=p6ulv388.2 kV=0.12 Vminpu=0.8 Vmaxpu=1.2 model=1 kva=1.07501 pf=1.0 Phases=1
New Load.load_p6ulv389_1 conn=wye bus1=p6ulv389.1 kV=0.12 Vminpu=0.8 Vmaxpu=1.2 model=1 kva=1.2650150000000002 pf=1.0 Phases=1
New Load.load_p6ulv390_1 conn=wye bus1=p6ulv390.1 kV=0.12 Vminpu=0.8 Vmaxpu=1.2 model=1 kva=0.89001 pf=1.0 Phases=1
New Load.load_p6ulv391_2 conn=wye bus1=p6ulv391.2 kV=0.12 Vminpu=0.8 Vmaxpu=1.2 model=1 kva=0.720005 pf=1.0 Phases=1
New Load.load_p6ulv392_1 conn=wye bus1=p6ulv392.1 kV=0.12 Vminpu=0.8 Vmaxpu=1.2 model=1 kva=1.345015 pf=1.0 Phases=1
New Load.load_p6ulv392_2 conn=wye bus1=p6ulv392.2 kV=0.12 Vminpu=0.8 Vmaxpu=1.2 model=1 kva=1.345015 pf=1.0 Phases=1
New Load.load_p6ulv393_1 conn=wye bus1=p6ulv393.1 kV=0.12 Vminpu=0.8 Vmaxpu=1.2 model=1 kva=0.85501 pf=1.0 Phases=1
New Load.load_p6ulv393_2 conn=wye bus1=p6ulv393.2 kV=0.12 Vminpu=0.8 Vmaxpu=1.2 model=1 kva=0.85501 pf=1.0 Phases=1
New Load.load_p6ulv394_2 conn=wye bus1=p6ulv394.2 kV=0.12 Vminpu=0.8 Vmaxpu=1.2 model=1 kva=0.620005 pf=1.0 Phases=1
New Load.load_p6ulv395_1 conn=wye bus1=p6ulv395.1 kV=0.12 Vminpu=0.8 Vmaxpu=1.2 model=1 kva=0.275003 pf=1.0 Phases=1
New Load.load_p6ulv395_2 conn=wye bus1=p6ulv395.2 kV=0.12 Vminpu=0.8 Vmaxpu=1.2 model=1 kva=0.275003 pf=1.0 Phases=1
New Load.load_p6ulv396_1 conn=wye bus1=p6ulv396.1 kV=0.12 Vminpu=0.8 Vmaxpu=1.2 model=1 kva=0.90001 pf=1.0 Phases=1
New Load.load_p6ulv396_2 conn=wye bus1=p6ulv396.2 kV=0.12 Vminpu=0.8 Vmaxpu=1.2 model=1 kva=0.90001 pf=1.0 Phases=1
New Load.load_p6ulv397_1 conn=wye bus1=p6ulv397.1 kV=0.12 Vminpu=0.8 Vmaxpu=1.2 model=1 kva=0.81501 pf=1.0 Phases=1
New Load.load_p6ulv398_2 conn=wye bus1=p6ulv398.2 kV=0.12 Vminpu=0.8 Vmaxpu=1.2 model=1 kva=0.84001 pf=1.0 Phases=1
New Load.load_p6ulv399_1 conn=wye bus1=p6ulv399.1 kV=0.12 Vminpu=0.8 Vmaxpu=1.2 model=1 kva=1.440015 pf=1.0 Phases=1
New Load.load_p6ulv399_2 conn=wye bus1=p6ulv399.2 kV=0.12 Vminpu=0.8 Vmaxpu=1.2 model=1 kva=1.440015 pf=1.0 Phases=1
New Load.load_p6ulv400_1 conn=wye bus1=p6ulv400.1 kV=0.12 Vminpu=0.8 Vmaxpu=1.2 model=1 kva=0.90001 pf=1.0 Phases=1
New Load.load_p6ulv400_2 conn=wye bus1=p6ulv400.2 kV=0.12 Vminpu=0.8 Vmaxpu=1.2 model=1 kva=0.90001 pf=1.0 Phases=1
New Load.load_p6ulv402_2 conn=wye bus1=p6ulv402.2 kV=0.12 Vminpu=0.8 Vmaxpu=1.2 model=1 kva=1.6600150000000002 pf=1.0 Phases=1
New Load.load_p6ulv403_1 conn=wye bus1=p6ulv403.1 kV=0.12 Vminpu=0.8 Vmaxpu=1.2 model=1 kva=0.4300045 pf=1.0 Phases=1
New Load.load_p6ulv403_2 conn=wye bus1=p6ulv403.2 kV=0.12 Vminpu=0.8 Vmaxpu=1.2 model=1 kva=0.4300045 pf=1.0 Phases=1
New Load.load_p6ulv404_1 conn=wye bus1=p6ulv404.1 kV=0.12 Vminpu=0.8 Vmaxpu=1.2 model=1 kva=0.600005 pf=1.0 Phases=1
New Load.load_p6ulv404_2 conn=wye bus1=p6ulv404.2 kV=0.12 Vminpu=0.8 Vmaxpu=1.2 model=1 kva=0.600005 pf=1.0 Phases=1
New Load.load_p6ulv405_1 conn=wye bus1=p6ulv405.1 kV=0.12 Vminpu=0.8 Vmaxpu=1.2 model=1 kva=1.05501 pf=1.0 Phases=1
New Load.load_p6ulv405_2 conn=wye bus1=p6ulv405.2 kV=0.12 Vminpu=0.8 Vmaxpu=1.2 model=1 kva=1.05501 pf=1.0 Phases=1
New Load.load_p6ulv406_1 conn=wye bus1=p6ulv406.1 kV=0.12 Vminpu=0.8 Vmaxpu=1.2 model=1 kva=0.620005 pf=1.0 Phases=1
New Load.load_p6ulv406_2 conn=wye bus1=p6ulv406.2 kV=0.12 Vminpu=0.8 Vmaxpu=1.2 model=1 kva=0.620005 pf=1.0 Phases=1
New Load.load_p6ulv407_1 conn=wye bus1=p6ulv407.1 kV=0.12 Vminpu=0.8 Vmaxpu=1.2 model=1 kva=0.675005 pf=1.0 Phases=1
New Load.load_p6ulv408_1 conn=wye bus1=p6ulv408.1 kV=0.12 Vminpu=0.8 Vmaxpu=1.2 model=1 kva=0.85501 pf=1.0 Phases=1
New Load.load_p6ulv408_2 conn=wye bus1=p6ulv408.2 kV=0.12 Vminpu=0.8 Vmaxpu=1.2 model=1 kva=0.85501 pf=1.0 Phases=1
New Load.load_p6ulv409_1 conn=wye bus1=p6ulv409.1 kV=0.12 Vminpu=0.8 Vmaxpu=1.2 model=1 kva=2.97003 pf=1.0 Phases=1
New Load.load_p6ulv410_1 conn=wye bus1=p6ulv410.1 kV=0.12 Vminpu=0.8 Vmaxpu=1.2 model=1 kva=1.340015 pf=1.0 Phases=1
New Load.load_p6ulv411_2 conn=wye bus1=p6ulv411.2 kV=0.12 Vminpu=0.8 Vmaxpu=1.2 model=1 kva=0.90501 pf=1.0 Phases=1
New Load.load_p6ulv412_2 conn=wye bus1=p6ulv412.2 kV=0.12 Vminpu=0.8 Vmaxpu=1.2 model=1 kva=0.82501 pf=1.0 Phases=1
New Load.load_p6ulv413_1 conn=wye bus1=p6ulv413.1 kV=0.12 Vminpu=0.8 Vmaxpu=1.2 model=1 kva=2.20002 pf=1.0 Phases=1
New Load.load_p6ulv413_2 conn=wye bus1=p6ulv413.2 kV=0.12 Vminpu=0.8 Vmaxpu=1.2 model=1 kva=2.20002 pf=1.0 Phases=1
New Load.load_p6ulv414_1 conn=wye bus1=p6ulv414.1 kV=0.12 Vminpu=0.8 Vmaxpu=1.2 model=1 kva=1.07001 pf=1.0 Phases=1
New Load.load_p6ulv414_2 conn=wye bus1=p6ulv414.2 kV=0.12 Vminpu=0.8 Vmaxpu=1.2 model=1 kva=1.07001 pf=1.0 Phases=1
New Load.load_p6ulv415_2 conn=wye bus1=p6ulv415.2 kV=0.12 Vminpu=0.8 Vmaxpu=1.2 model=1 kva=0.405004 pf=1.0 Phases=1
New Load.load_p6ulv416_1 conn=wye bus1=p6ulv416.1 kV=0.12 Vminpu=0.8 Vmaxpu=1.2 model=1 kva=0.690005 pf=1.0 Phases=1