New Load.motor_load_p6ulv245_1 conn=wye bus1=p6ulv245.1 kV=0.12 kW=1.1474573526944263 kvar=0.22949147053888527 Phases=1 Vminpu=0.0 Vmaxpu=1.2 model=1
New Load.motor_load_p6ulv245_2 conn=wye bus1=p6ulv245.2 kV=0.12 kW=1.071546756928977 kvar=0.2143093513857954 Phases=1 Vminpu=0.0 Vmaxpu=1.2 model=1
New Load.motor_load_p6ulv247_1 conn=wye bus1=p6ulv247.1 kV=0.12 kW=1.1453360393293424 kvar=0.22906720786586848 Phases=1 Vminpu=0.0 Vmaxpu=1.2 model=1
New Load.motor_load_p6ulv248_1 conn=wye bus1=p6ulv248.1 kV=0.12 kW=1.2341494669374962 kvar=0.24682989338749925 Phases=1 Vminpu=0.0 Vmaxpu=1.2 model=1
New Load.motor_load_p6ulv250_2 conn=wye bus1=p6ulv250.2 kV=0.12 kW=1.072820843869143 kvar=0.21456416877382858 Phases=1 Vminpu=0.0 Vmaxpu=1.2 model=1
New Load.motor_load_p6ulv253_2 conn=wye bus1=p6ulv253.2 kV=0.12 kW=1.198807530753141 kvar=0.2397615061506282 Phases=1 Vminpu=0.0 Vmaxpu=1.2 model=1
New Load.motor_load_p6ulv257_1 conn=wye bus1=p6ulv257.1 kV=0.12 kW=1.0842425517942496 kvar=0.21684851035884992 Phases=1 Vminpu=0.0 Vmaxpu=1.2 model=1
New Load.motor_load_p6ulv257_2 conn=wye bus1=p6ulv257.2 kV=0.12 kW=1.1971650471561623 kvar=0.23943300943123247 Phases=1 Vminpu=0.0 Vmaxpu=1.2 model=1
New Load.motor_load_p6ulv260_1 conn=wye bus1=p6ulv260.1 kV=0.12 kW=1.112846541366472 kvar=0.22256930827329444 Phases=1 Vminpu=0.0 Vmaxpu=1.2 model=1
New Load.motor_load_p6ulv267_2 conn=wye bus1=p6ulv267.2 kV=0.12 kW=1.106791695161031 kvar=0.22135833903220622 Phases=1 Vminpu=0.0 Vmaxpu=1.2 model=1
New Load.motor_load_p6ulv268_2 conn=wye bus1=p6ulv268.2 kV=0.12 kW=1.1076969403862869 kvar=0.22153938807725737 Phases=1 Vminpu=0.0 Vmaxpu=1.2 model=1
New Load.motor_load_p6ulv269_2 conn=wye bus1=p6ulv269.2 kV=0.12 kW=1.1918630366024394 kvar=0.2383726073204879 Phases=1 Vminpu=0.0 Vmaxpu=1.2 model=1
New Load.motor_load_p6ulv270_1 conn=wye bus1=p6ulv270.1 kV=0.12 kW=1.2017426270137044 kvar=0.24034852540274088 Phases=1 Vminpu=0.0 Vmaxpu=1.2 model=1
New Load.motor_load_p6ulv273_1 conn=wye bus1=p6ulv273.1 kV=0.12 kW=1.2528755141341508 kvar=0.25057510282683015 Phases=1 Vminpu=0.0 Vmaxpu=1.2 model=1
New Load.motor_load_p6ulv273_2 conn=wye bus1=p6ulv273.2 kV=0.12 kW=1.0871230122498945 kvar=0.2174246024499789 Phases=1 Vminpu=0.0 Vmaxpu=1.2 model=1
New Load.motor_load_p6ulv274_2 conn=wye bus1=p6ulv274.2 kV=0.12 kW=1.1388705928727192 kvar=0.22777411857454385 Phases=1 Vminpu=0.0 Vmaxpu=1.2 model=1
New Load.motor_load_p6ulv275_1 conn=wye bus1=p6ulv275.1 kV=0.12 kW=1.1889760883969702 kvar=0.23779521767939404 Phases=1 Vminpu=0.0 Vmaxpu=1.2 model=1
New Load.motor_load_p6ulv277_1 conn=wye bus1=p6ulv277.1 kV=0.12 kW=1.08682887500935 kvar=0.21736577500187002 Phases=1 Vminpu=0.0 Vmaxpu=1.2 model=1
New Load.motor_load_p6ulv278_2 conn=wye bus1=p6ulv278.2 kV=0.12 kW=1.1374155652951459 kvar=0.22748311305902918 Phases=1 Vminpu=0.0 Vmaxpu=1.2 model=1
New Load.motor_load_p6ulv280_2 conn=wye bus1=p6ulv280.2 kV=0.12 kW=1.197015569690833 kvar=0.2394031139381666 Phases=1 Vminpu=0.0 Vmaxpu=1.2 model=1
New Load.motor_load_p6ulv281_1 conn=wye bus1=p6ulv281.1 kV=0.12 kW=1.080291197536986 kvar=0.21605823950739722 Phases=1 Vminpu=0.0 Vmaxpu=1.2 model=1
New Load.motor_load_p6ulv282_2 conn=wye bus1=p6ulv282.2 kV=0.12 kW=1.209835478841719 kvar=0.2419670957683438 Phases=1 Vminpu=0.0 Vmaxpu=1.2 model=1
New Load.motor_load_p6ulv289_2 conn=wye bus1=p6ulv289.2 kV=0.12 kW=1.07249737857765 kvar=0.21449947571553 Phases=1 Vminpu=0.0 Vmaxpu=1.2 model=1
New Load.motor_load_p6ulv290_1 conn=wye bus1=p6ulv290.1 kV=0.12 kW=1.0978195356881477 kvar=0.21956390713762955 Phases=1 Vminpu=0.0 Vmaxpu=1.2 model=1
New Load.motor_load_p6ulv290_2 conn=wye bus1=p6ulv290.2 kV=0.12 kW=1.2260392366684392 kvar=0.24520784733368783 Phases=1 Vminpu=0.0 Vmaxpu=1.2 model=1
New Load.motor_load_p6ulv291_1 conn=wye bus1=p6ulv291.1 kV=0.12 kW=1.188560902142051 kvar=0.2377121804284102 Phases=1 Vminpu=0.0 Vmaxpu=1.2 model=1
New Load.motor_load_p6ulv291_2 conn=wye bus1=p6ulv291.2 kV=0.12 kW=1.0943583442423805 kvar=0.21887166884847611 Phases=1 Vminpu=0.0 Vmaxpu=1.2 model=1
New Load.motor_load_p6ulv292_1 conn=wye bus1=p6ulv292.1 kV=0.12 kW=1.1051851550931437 kvar=0.22103703101862876 Phases=1 Vminpu=0.0 Vmaxpu=1.2 model=1
New Load.motor_load_p6ulv293_1 conn=wye bus1=p6ulv293.1 kV=0.12 kW=1.1792908283534622 kvar=0.23585816567069245 Phases=1 Vminpu=0.0 Vmaxpu=1.2 model=1
New Load.motor_load_p6ulv293_2 conn=wye bus1=p6ulv293.2 kV=0.12 kW=1.0568525020544162 kvar=0.21137050041088323 Phases=1 Vminpu=0.0 Vmaxpu=1.2 model=1
New Load.motor_load_p6ulv297_1 conn=wye bus1=p6ulv297.1 kV=0.12 kW=1.1931672533114661 kvar=0.23863345066229324 Phases=1 Vminpu=0.0 Vmaxpu=1.2 model=1
New Load.motor_load_p6ulv297_2 conn=wye bus1=p6ulv297.2 kV=0.12 kW=1.2021033422232645 kvar=0.24042066844465293 Phases=1 Vminpu=0.0 Vmaxpu=1.2 model=1
New Load.motor_load_p6ulv298_1 conn=wye bus1=p6ulv298.1 kV=0.12 kW=1.2447631590008228 kvar=0.24895263180016458 Phases=1 Vminpu=0.0 Vmaxpu=1.2 model=1
New Load.motor_load_p6ulv298_2 conn=wye bus1=p6ulv298.2 kV=0.12 kW=1.0579879242019035 kvar=0.21159758484038071 Phases=1 Vminpu=0.0 Vmaxpu=1.2 model=1
New Load.motor_load_p6ulv300_1 conn=wye bus1=p6ulv300.1 kV=0.12 kW=1.0708553725485868 kvar=0.21417107450971737 Phases=1 Vminpu=0.0 Vmaxpu=1.2 model=1
New Load.motor_load_p6ulv303_1 conn=wye bus1=p6ulv303.1 kV=0.12 kW=1.0726788168813264 kvar=0.2145357633762653 Phases=1 Vminpu=0.0 Vmaxpu=1.2 model=1
New Load.motor_load_p6ulv310_2 conn=wye bus1=p6ulv310.2 kV=0.12 kW=1.2258025064724116 kvar=0.24516050129448233 Phases=1 Vminpu=0.0 Vmaxpu=1.2 model=1
New Load.motor_load_p6ulv313_2 conn=wye bus1=p6ulv313.2 kV=0.12 kW=1.1171484963791454 kvar=0.2234296992758291 Phases=1 Vminpu=0.0 Vmaxpu=1.2 model=1
New Load.motor_load_p6ulv314_1 conn=wye bus1=p6ulv314.1 kV=0.12 kW=1.2574361288223939 kvar=0.2514872257644788 Phases=1 Vminpu=0.0 Vmaxpu=1.2 model=1
New Load.motor_load_p6ulv316_2 conn=wye bus1=p6ulv316.2 kV=0.12 kW=1.1477867495506442 kvar=0.22955734991012886 Phases=1 Vminpu=0.0 Vmaxpu=1.2 model=1
New Load.motor_load_p6ulv317_1 conn=wye bus1=p6ulv317.1 kV=0.12 kW=1.141415013173434 kvar=0.22828300263468682 Phases=1 Vminpu=0.0 Vmaxpu=1.2 model=1
New Load.motor_load_p6ulv319_1 conn=wye bus1=p6ulv319.1 kV=0.12 kW=1.0602344304041302 kvar=0.21204688608082606 Phases=1 Vminpu=0.0 Vmaxpu=1.2 model=1
New Load.motor_load_p6ulv322_1 conn=wye bus1=p6ulv322.1 kV=0.12 kW=1.1021206280046518 kvar=0.2204241256009304 Phases=1 Vminpu=0.0 Vmaxpu=1.2 model=1
New Load.motor_load_p6ulv324_1 conn=wye bus1=p6ulv324.1 kV=0.12 kW=1.0655021539460396 kvar=0.21310043078920793 Phases=1 Vminpu=0.0 Vmaxpu=1.2 model=1
New Load.motor_load_p6ulv324_2 conn=wye bus1=p6ulv324.2 kV=0.12 kW=1.0883152778632694 kvar=0.2176630555726539 Phases=1 Vminpu=0.0 Vmaxpu=1.2 model=1
New Load.motor_load_p6ulv325_2 conn=wye bus1=p6ulv325.2 kV=0.12 kW=1.1343461529197076 kvar=0.22686923058394154 Phases=1 Vminpu=0.0 Vmaxpu=1.2 model=1
New Load.motor_load_p6ulv327_2 conn=wye bus1=p6ulv327.2 kV=0.12 kW=1.1764820449098967 kvar=0.23529640898197934 Phases=1 Vminpu=0.0 Vmaxpu=1.2 model=1
New Load.motor_load_p6ulv329_1 conn=wye bus1=p6ulv329.1 kV=0.12 kW=1.0695826993163091 kvar=0.21391653986326184 Phases=1 Vminpu=0.0 Vmaxpu=1.2 model=1
New Load.motor_load_p6ulv329_2 conn=wye bus1=p6ulv329.2 kV=0.12 kW=1.2047458638248083 kvar=0.24094917276496167 Phases=1 Vminpu=0.0 Vmaxpu=1.2 model=1
New Load.motor_load_p6ulv332_1 conn=wye bus1=p6ulv332.1 kV=0.12 kW=1.2424473259038027 kvar=0.24848946518076054 Phases=1 Vminpu=0.0 Vmaxpu=1.2 model=1
New Load.motor_load_p6ulv333_1 conn=wye bus1=p6ulv332.1 kV=0.12 kW=1.1775413134212152 kvar=0.23550826268424305 Phases=1 Vminpu=0.0 Vmaxpu=1.2 model=1
New Load.motor_load_p6ulv334_1 conn=wye bus1=p6ulv334.1 kV=0.12 kW=1.094416247366983 kvar=0.2188832494733966 Phases=1 Vminpu=0.0 Vmaxpu=1.2 model=1
New Load.motor_load_p6ulv335_2 conn=wye bus1=p6ulv335.2 kV=0.12 kW=1.1808515642636161 kvar=0.23617031285272325 Phases=1 Vminpu=0.0 Vmaxpu=1.2 model=1
New Load.motor_load_p6ulv338_2 conn=wye bus1=p6ulv338.2 kV=0.12 kW=1.053551827960593 kvar=0.21071036559211864 Phases=1 Vminpu=0.0 Vmaxpu=1.2 model=1
New Load.motor_load_p6ulv340_1 conn=wye bus1=p6ulv340.1 kV=0.12 kW=1.057191500244643 kvar=0.2114383000489286 Phases=1 Vminpu=0.0 Vmaxpu=1.2 model=1
New Load.motor_load_p6ulv342_1 conn=wye bus1=p6ulv342.1 kV=0.12 kW=1.2239008388036627 kvar=0.24478016776073255 Phases=1 Vminpu=0.0 Vmaxpu=1.2 model=1
New Load.motor_load_p6ulv346_2 conn=wye bus1=p6ulv345.2 kV=0.12 kW=1.2142958579632455 kvar=0.2428591715926491 Phases=1 Vminpu=0.0 Vmaxpu=1.2 model=1
New Load.motor_load_p6ulv347_1 conn=wye bus1=p6ulv347.1 kV=0.12 kW=1.1396797697685428 kvar=0.22793595395370858 Phases=1 Vminpu=0.0 Vmaxpu=1.2 model=1
New Load.motor_load_p6ulv347_2 conn=wye bus1=p6ulv347.2 kV=0.12 kW=1.159882878719545 kvar=0.231976575743909 Phases=1 Vminpu=0.0 Vmaxpu=1.2 model=1
New Load.motor_load_p6ulv354_1 conn=wye bus1=p6ulv354.1 kV=0.12 kW=1.2017499700994405 kvar=0.2403499940198881 Phases=1 Vminpu=0.0 Vmaxpu=1.2 model=1
New Load.motor_load_p6ulv359_1 conn=wye bus1=p6ulv359.1 kV=0.12 kW=1.1050173828628702 kvar=0.22100347657257405 Phases=1 Vminpu=0.0 Vmaxpu=1.2 model=1
New Load.motor_load_p6ulv361_1 conn=wye bus1=p6ulv361.1 kV=0.12 kW=1.2191343942952788 kvar=0.24382687885905577 Phases=1 Vminpu=0.0 Vmaxpu=1.2 model=1
New Load.motor_load_p6ulv362_1 conn=wye bus1=p6ulv362.1 kV=0.12 kW=1.2295002298313862 kvar=0.24590004596627724 Phases=1 Vminpu=0.0 Vmaxpu=1.2 model=1
New Load.motor_load_p6ulv364_1 conn=wye bus1=p6ulv364.1 kV=0.12 kW=1.1699947650863434 kvar=0.2339989530172687 Phases=1 Vminpu=0.0 Vmaxpu=1.2 model=1
New Load.motor_load_p6ulv366_2 conn=wye bus1=p6ulv366.2 kV=0.12 kW=1.1263226593297149 kvar=0.22526453186594297 Phases=1 Vminpu=0.0 Vmaxpu=1.2 model=1
New Load.motor_load_p6ulv367_1 conn=wye bus1=p6ulv367.1 kV=0.12 kW=1.0793125670572592 kvar=0.21586251341145185 Phases=1 Vminpu=0.0 Vmaxpu=1.2 model=1
New Load.motor_load_p6ulv368_1 conn=wye bus1=p6ulv368.1 kV=0.12 kW=1.1910447714975578 kvar=0.23820895429951158 Phases=1 Vminpu=0.0 Vmaxpu=1.2 model=1
New Load.motor_load_p6ulv368_2 conn=wye bus1=p6ulv368.2 kV=0.12 kW=1.061230593234685 kvar=0.21224611864693702 Phases=1 Vminpu=0.0 Vmaxpu=1.2 model=1
New Load.motor_load_p6ulv371_2 conn=wye bus1=p6ulv371.2 kV=0.12 kW=1.0758005414422593 kvar=0.2151601082884519 Phases=1 Vminpu=0.0 Vmaxpu=1.2 model=1
New Load.motor_load_p6ulv376_2 conn=wye bus1=p6ulv376.2 kV=0.12 kW=1.197230744785263 kvar=0.23944614895705263 Phases=1 Vminpu=0.0 Vmaxpu=1.2 model=1
New Load.motor_load_p6ulv378_2 conn=wye bus1=p6ulv378.2 kV=0.12 kW=1.1858893529053751 kvar=0.23717787058107503 Phases=1 Vminpu=0.0 Vmaxpu=1.2 model=1
New Load.motor_load_p6ulv381_2 conn=wye bus1=p6ulv381.2 kV=0.12 kW=1.0894002393718876 kvar=0.21788004787437754 Phases=1 Vminpu=0.0 Vmaxpu=1.2 model=1
New Load.motor_load_p6ulv387_1 conn=wye bus1=p6ulv387.1 kV=0.12 kW=1.1512905554400863 kvar=0.23025811108801728 Phases=1 Vminpu=0.0 Vmaxpu=1.2 model=1
New Load.motor_load_p6ulv389_2 conn=wye bus1=p6ulv389.2 kV=0.12 kW=1.2261376896065526 kvar=0.24522753792131052 Phases=1 Vminpu=0.0 Vmaxpu=1.2 model=1
New Load.motor_load_p6ulv390_2 conn=wye bus1=p6ulv390.2 kV=0.12 kW=1.2281471237290873 kvar=0.24562942474581748 Phases=1 Vminpu=0.0 Vmaxpu=1.2 model=1
New Load.motor_load_p6ulv391_1 conn=wye bus1=p6ulv391.1 kV=0.12 kW=1.2622021621611872 kvar=0.25244043243223746 Phases=1 Vminpu=0.0 Vmaxpu=1.2 model=1
New Load.motor_load_p6ulv394_1 conn=wye bus1=p6ulv394.1 kV=0.12 kW=1.1266169320673607 kvar=0.22532338641347216 Phases=1 Vminpu=0.0 Vmaxpu=1.2 model=1
New Load.motor_load_p6ulv397_2 conn=wye bus1=p6ulv397.2 kV=0.12 kW=1.1326116724779773 kvar=0.22652233449559547 Phases=1 Vminpu=0.0 Vmaxpu=1.2 model=1
New Load.motor_load_p6ulv398_1 conn=wye bus1=p6ulv398.1 kV=0.12 kW=1.2237656349841621 kvar=0.24475312699683244 Phases=1 Vminpu=0.0 Vmaxpu=1.2 model=1
New Load.motor_load_p6ulv401_1 conn=wye bus1=p6ulv401.1 kV=0.12 kW=1.1555677349333402 kvar=0.23111354698666806 Phases=1 Vminpu=0.0 Vmaxpu=1.2 model=1
New Load.motor_load_p6ulv401_2 conn=wye bus1=p6ulv401.2 kV=0.12 kW=1.0545676654043086 kvar=0.21091353308086172 Phases=1 Vminpu=0.0 Vmaxpu=1.2 model=1
New Load.motor_load_p6ulv402_1 conn=wye bus1=p6ulv402.1 kV=0.12 kW=1.1955821846098384 kvar=0.2391164369219677 Phases=1 Vminpu=0.0 Vmaxpu=1.2 model=1
New Load.motor_load_p6ulv407_2 conn=wye bus1=p6ulv407.2 kV=0.12 kW=1.1225470746605852 kvar=0.22450941493211707 Phases=1 Vminpu=0.0 Vmaxpu=1.2 model=1
New Load.motor_load_p6ulv409_2 conn=wye bus1=p6ulv409.2 kV=0.12 kW=1.1687340528693435 kvar=0.2337468105738687 Phases=1 Vminpu=0.0 Vmaxpu=1.2 model=1
New Load.motor_load_p6ulv410_2 conn=wye bus1=p6ulv410.2 kV=0.12 kW=1.2564364786693751 kvar=0.25128729573387504 Phases=1 Vminpu=0.0 Vmaxpu=1.2 model=1
New Load.motor_load_p6ulv411_1 conn=wye bus1=p6ulv411.1 kV=0.12 kW=1.06915805209342 kvar=0.21383161041868404 Phases=1 Vminpu=0.0 Vmaxpu=1.2 model=1
New Load.motor_load_p6ulv412_1 conn=wye bus1=p6ulv412.1 kV=0.12 kW=1.2204425953243754 kvar=0.24408851906487508 Phases=1 Vminpu=0.0 Vmaxpu=1.2 model=1
New Load.motor_load_p6ulv415_1 conn=wye bus1=p6ulv415.1 kV=0.12 kW=1.108784158966436 kvar=0.2217568317932872 Phases=1 Vminpu=0.0 Vmaxpu=1.2 model=1
New Load.motor_load_p6ulv417_1 conn=wye bus1=p6ulv417.1 kV=0.12 kW=1.086684174375251 kvar=0.21733683487505023 Phases=1 Vminpu=0.0 Vmaxpu=1.2 model=1
New Load.motor_load_p6ulv420_2 conn=wye bus1=p6ulv420.2 kV=0.12 kW=1.070060114318764 kvar=0.21401202286375282 Phases=1 Vminpu=0.0 Vmaxpu=1.2 model=1
New Load.motor_load_p6ulv421_2 conn=wye bus1=p6ulv421.2 kV=0.12 kW=1.0537482930120936 kvar=0.21074965860241873 Phases=1 Vminpu=0.0 Vmaxpu=1.2 model=1
New Load.motor_load_p6ulv423_1 conn=wye bus1=p6ulv423.1 kV=0.12 kW=1.0540763246223899 kvar=0.210815264924478 Phases=1 Vminpu=0.0 Vmaxpu=1.2 model=1
New Load.motor_load_p6ulv423_2 conn=wye bus1=p6ulv423.2 kV=0.12 kW=1.1588495604971047 kvar=0.23176991209942097 Phases=1 Vminpu=0.0 Vmaxpu=1.2 model=1
New Load.motor_load_p6ulv425_2 conn=wye bus1=p6ulv425.2 kV=0.12 kW=1.0725024238113365 kvar=0.21450048476226732 Phases=1 Vminpu=0.0 Vmaxpu=1.2 model=1
New Load.motor_load_p6ulv428_1 conn=wye bus1=p6ulv428.1 kV=0.12 kW=1.0695078255181505 kvar=0.21390156510363012 Phases=1 Vminpu=0.0 Vmaxpu=1.2 model=1
New Load.motor_load_p6ulv428_2 conn=wye bus1=p6ulv428.2 kV=0.12 kW=1.1259460769774676 kvar=0.22518921539549352 Phases=1 Vminpu=0.0 Vmaxpu=1.2 model=1
New Load.motor_load_p6ulv429_1 conn=wye bus1=p6ulv429.1 kV=0.12 kW=1.0693302878885365 kvar=0.2138660575777073 Phases=1 Vminpu=0.0 Vmaxpu=1.2 model=1
New Load.motor_load_p6ulv429_2 conn=wye bus1=p6ulv429.2 kV=0.12 kW=1.2522480415308435 kvar=0.2504496083061687 Phases=1 Vminpu=0.0 Vmaxpu=1.2 model=1
New Load.motor_load_p6ulv430_1 conn=wye bus1=p6ulv430.1 kV=0.12 kW=1.137504336874104 kvar=0.2275008673748208 Phases=1 Vminpu=0.0 Vmaxpu=1.2 model=1
New Load.motor_load_p6ulv431_2 conn=wye bus1=p6ulv431.2 kV=0.12 kW=1.2062212886507113 kvar=0.24124425773014227 Phases=1 Vminpu=0.0 Vmaxpu=1.2 model=1
New Load.motor_load_p6ulv432_1 conn=wye bus1=p6ulv432.1 kV=0.12 kW=1.1910003577827357 kvar=0.23820007155654715 Phases=1 Vminpu=0.0 Vmaxpu=1.2 model=1
New Load.motor_load_p6ulv432_2 conn=wye bus1=p6ulv432.2 kV=0.12 kW=1.1604454576894847 kvar=0.23208909153789695 Phases=1 Vminpu=0.0 Vmaxpu=1.2 model=1
New Load.motor_load_p6ulv434_2 conn=wye bus1=p6ulv434.2 kV=0.12 kW=1.1449690972084292 kvar=0.22899381944168584 Phases=1 Vminpu=0.0 Vmaxpu=1.2 model=1
New Load.motor_load_p6ulv435_2 conn=wye bus1=p6ulv435.2 kV=0.12 kW=1.1619746132665856 kvar=0.23239492265331713 Phases=1 Vminpu=0.0 Vmaxpu=1.2 model=1
New Load.motor_load_p6ulv436_1 conn=wye bus1=p6ulv436.1 kV=0.12 kW=1.1383371348708184 kvar=0.2276674269741637 Phases=1 Vminpu=0.0 Vmaxpu=1.2 model=1
New Load.motor_load_p6ulv437_2 conn=wye bus1=p6ulv437.2 kV=0.12 kW=1.16111263844596 kvar=0.23222252768919202 Phases=1 Vminpu=0.0 Vmaxpu=1.2 model=1
New Load.motor_load_p6ulv440_1 conn=wye bus1=p6ulv440.1 kV=0.12 kW=1.1118233238832367 kvar=0.22236466477664735 Phases=1 Vminpu=0.0 Vmaxpu=1.2 model=1
New Load.motor_load_p6ulv442_1 conn=wye bus1=p6ulv442.1 kV=0.12 kW=1.1252209593485094 kvar=0.2250441918697019 Phases=1 Vminpu=0.0 Vmaxpu=1.2 model=1
New Load.motor_load_p6ulv445_1 conn=wye bus1=p6ulv445.1 kV=0.12 kW=1.0720861238770218 kvar=0.21441722477540437 Phases=1 Vminpu=0.0 Vmaxpu=1.2 model=1
New Load.motor_load_p6ulv445_2 conn=wye bus1=p6ulv445.2 kV=0.12 kW=1.1798910449104039 kvar=0.23597820898208077 Phases=1 Vminpu=0.0 Vmaxpu=1.2 model=1
New Load.motor_load_p6ulv446_2 conn=wye bus1=p6ulv446.2 kV=0.12 kW=1.0920037074945237 kvar=0.21840074149890476 Phases=1 Vminpu=0.0 Vmaxpu=1.2 model=1
New Load.motor_load_p6ulv448_2 conn=wye bus1=p6ulv448.2 kV=0.12 kW=1.0605254933624244 kvar=0.2121050986724849 Phases=1 Vminpu=0.0 Vmaxpu=1.2 model=1
New Load.motor_load_p6ulv453_1 conn=wye bus1=p6ulv453.1 kV=0.12 kW=1.1216922219564762 kvar=0.22433844439129524 Phases=1 Vminpu=0.0 Vmaxpu=1.2 model=1
New Load.motor_load_p6ulv453_2 conn=wye bus1=p6ulv453.2 kV=0.12 kW=1.1382537232447751 kvar=0.22765074464895504 Phases=1 Vminpu=0.0 Vmaxpu=1.2 model=1
New Load.motor_load_p6ulv455_1 conn=wye bus1=p6ulv455.1 kV=0.12 kW=1.0620522663354863 kvar=0.2124104532670973 Phases=1 Vminpu=0.0 Vmaxpu=1.2 model=1
New Load.motor_load_p6ulv455_2 conn=wye bus1=p6ulv455.2 kV=0.12 kW=1.195071160827534 kvar=0.2390142321655068 Phases=1 Vminpu=0.0 Vmaxpu=1.2 model=1
New Load.motor_load_p6ulv456_1 conn=wye bus1=p6ulv456.1 kV=0.12 kW=1.1947678587586577 kvar=0.23895357175173154 Phases=1 Vminpu=0.0 Vmaxpu=1.2 model=1
New Load.motor_load_p6ulv456_2 conn=wye bus1=p6ulv456.2 kV=0.12 kW=1.2139573629617804 kvar=0.2427914725923561 Phases=1 Vminpu=0.0 Vmaxpu=1.2 model=1
New Load.motor_load_p6ulv457_1 conn=wye bus1=p6ulv457.1 kV=0.12 kW=1.1121971004519053 kvar=0.2224394200903811 Phases=1 Vminpu=0.0 Vmaxpu=1.2 model=1
New Load.motor_load_p6ulv460_1 conn=wye bus1=p6ulv460.1 kV=0.12 kW=1.1219435925757735 kvar=0.2243887185151547 Phases=1 Vminpu=0.0 Vmaxpu=1.2 model=1
New Load.motor_load_p6ulv462_1 conn=wye bus1=p6ulv462.1 kV=0.12 kW=1.1232819925689457 kvar=0.22465639851378916 Phases=1 Vminpu=0.0 Vmaxpu=1.2 model=1
New Load.motor_load_p6ulv1591_1 conn=wye bus1=p6ulv1591.1 kV=0.12 kW=1.1932393993711101 kvar=0.23864787987422204 Phases=1 Vminpu=0.0 Vmaxpu=1.2 model=1
New Load.motor_load_p6ulv1592_1 conn=wye bus1=p6ulv1592.1 kV=0.12 kW=1.158405616366479 kvar=0.23168112327329582 Phases=1 Vminpu=0.0 Vmaxpu=1.2 model=1
New Load.motor_load_p6ulv1596_2 conn=wye bus1=p6ulv1596.2 kV=0.12 kW=1.1977452114021778 kvar=0.23954904228043558 Phases=1 Vminpu=0.0 Vmaxpu=1.2 model=1
New Load.motor_load_p6ulv1598_2 conn=wye bus1=p6ulv1598.2 kV=0.12 kW=1.2427151957262488 kvar=0.24854303914524978 Phases=1 Vminpu=0.0 Vmaxpu=1.2 model=1
New Load.motor_load_p6ulv1599_2 conn=wye bus1=p6ulv1599.2 kV=0.12 kW=1.1386398173784547 kvar=0.22772796347569094 Phases=1 Vminpu=0.0 Vmaxpu=1.2 model=1
New Load.motor_load_p6ulv1600_2 conn=wye bus1=p6ulv1600.2 kV=0.12 kW=1.253908966804218 kvar=0.2507817933608436 Phases=1 Vminpu=0.0 Vmaxpu=1.2 model=1
New Load.motor_load_p6ulv2247_1 conn=wye bus1=p6ulv2247.1 kV=0.12 kW=1.23461013466184 kvar=0.24692202693236803 Phases=1 Vminpu=0.0 Vmaxpu=1.2 model=1
New Load.motor_load_p6ulv2251_2 conn=wye bus1=p6ulv2251.2 kV=0.12 kW=1.1140821745185243 kvar=0.22281643490370487 Phases=1 Vminpu=0.0 Vmaxpu=1.2 model=1
New Load.motor_load_p6ulv2253_1 conn=wye bus1=p6ulv2253.1 kV=0.12 kW=1.086879434114123 kvar=0.2173758868228246 Phases=1 Vminpu=0.0 Vmaxpu=1.2 model=1
New Load.motor_load_p6ulv2254_1 conn=wye bus1=p6ulv2254.1 kV=0.12 kW=1.117247488438265 kvar=0.22344949768765301 Phases=1 Vminpu=0.0 Vmaxpu=1.2 model=1
New Load.motor_load_p6ulv2255_2 conn=wye bus1=p6ulv2255.2 kV=0.12 kW=1.0939083937821428 kvar=0.21878167875642857 Phases=1 Vminpu=0.0 Vmaxpu=1.2 model=1
New Load.motor_load_p6ulv2256_1 conn=wye bus1=p6ulv2256.1 kV=0.12 kW=1.1664862639284732 kvar=0.23329725278569466 Phases=1 Vminpu=0.0 Vmaxpu=1.2 model=1
New Load.motor_load_p6ulv2257_2 conn=wye bus1=p6ulv2257.2 kV=0.12 kW=1.1321962679780435 kvar=0.2264392535956087 Phases=1 Vminpu=0.0 Vmaxpu=1.2 model=1
New Load.motor_load_p6ulv2259_2 conn=wye bus1=p6ulv2259.2 kV=0.12 kW=1.198147040063555 kvar=0.23962940801271101 Phases=1 Vminpu=0.0 Vmaxpu=1.2 model=1
New Load.motor_load_p6ulv2264_2 conn=wye bus1=p6ulv2264.2 kV=0.12 kW=1.150317425912902 kvar=0.23006348518258044 Phases=1 Vminpu=0.0 Vmaxpu=1.2 model=1
New Load.motor_load_p6ulv2266_1 conn=wye bus1=p6ulv2266.1 kV=0.12 kW=1.1312097057016224 kvar=0.22624194114032448 Phases=1 Vminpu=0.0 Vmaxpu=1.2 model=1
New Load.motor_load_p6ulv2268_1 conn=wye bus1=p6ulv2268.1 kV=0.12 kW=1.0785859503635968 kvar=0.2157171900727194 Phases=1 Vminpu=0.0 Vmaxpu=1.2 model=1
New Load.motor_load_p6ulv2268_2 conn=wye bus1=p6ulv2268.2 kV=0.12 kW=1.0529591578374076 kvar=0.2105918315674815 Phases=1 Vminpu=0.0 Vmaxpu=1.2 model=1
New Load.motor_load_p6ulv2269_1 conn=wye bus1=p6ulv2269.1 kV=0.12 kW=1.105998474533539 kvar=0.2211996949067078 Phases=1 Vminpu=0.0 Vmaxpu=1.2 model=1
New Load.motor_load_p6ulv2269_2 conn=wye bus1=p6ulv2269.2 kV=0.12 kW=1.101549065231543 kvar=0.2203098130463086 Phases=1 Vminpu=0.0 Vmaxpu=1.2 model=1
New Load.motor_load_p6ulv2276_2 conn=wye bus1=p6ulv2276.2 kV=0.12 kW=1.1209256715313405 kvar=0.2241851343062681 Phases=1 Vminpu=0.0 Vmaxpu=1.2 model=1
New Load.motor_load_p6ulv2279_1 conn=wye bus1=p6ulv2279.1 kV=0.12 kW=1.173226298914575 kvar=0.234645259782915 Phases=1 Vminpu=0.0 Vmaxpu=1.2 model=1
New Load.motor_load_p6ulv2280_2 conn=wye bus1=p6ulv2280.2 kV=0.12 kW=1.1777317865844967 kvar=0.23554635731689935 Phases=1 Vminpu=0.0 Vmaxpu=1.2 model=1
New Load.motor_load_p6ulv2284_2 conn=wye bus1=p6ulv2284.2 kV=0.12 kW=1.2153403705918124 kvar=0.2430680741183625 Phases=1 Vminpu=0.0 Vmaxpu=1.2 model=1
New Load.motor_load_p6ulv2285_1 conn=wye bus1=p6ulv2285.1 kV=0.12 kW=1.210277125684848 kvar=0.2420554251369696 Phases=1 Vminpu=0.0 Vmaxpu=1.2 model=1
New Load.motor_load_p6ulv2286_1 conn=wye bus1=p6ulv2286.1 kV=0.12 kW=1.0891791230659618 kvar=0.21783582461319237 Phases=1 Vminpu=0.0 Vmaxpu=1.2 model=1
New Load.motor_load_p6ulv2288_1 conn=wye bus1=p6ulv2288.1 kV=0.12 kW=1.2208394984612851 kvar=0.24416789969225705 Phases=1 Vminpu=0.0 Vmaxpu=1.2 model=1
New Load.motor_load_p6ulv2289_2 conn=wye bus1=p6ulv2289.2 kV=0.12 kW=1.064913583653914 kvar=0.21298271673078284 Phases=1 Vminpu=0.0 Vmaxpu=1.2 model=1
New Load.motor_load_p6ulv2291_2 conn=wye bus1=p6ulv2291.2 kV=0.12 kW=1.1229208872016594 kvar=0.22458417744033188 Phases=1 Vminpu=0.0 Vmaxpu=1.2 model=1
New Load.motor_load_p6ulv2294_2 conn=wye bus1=p6ulv2294.2 kV=0.12 kW=1.1271866422930925 kvar=0.22543732845861852 Phases=1 Vminpu=0.0 Vmaxpu=1.2 model=1
New Load.motor_load_p6ulv2295_2 conn=wye bus1=p6ulv2295.2 kV=0.12 kW=1.1435578990685131 kvar=0.22871157981370263 Phases=1 Vminpu=0.0 Vmaxpu=1.2 model=1
New Load.motor_load_p6ulv2296_1 conn=wye bus1=p6ulv2296.1 kV=0.12 kW=1.1380191330364295 kvar=0.22760382660728593 Phases=1 Vminpu=0.0 Vmaxpu=1.2 model=1
New Load.motor_load_p6ulv2297_1 conn=wye bus1=p6ulv2297.1 kV=0.12 kW=1.0928252321881888 kvar=0.21856504643763777 Phases=1 Vminpu=0.0 Vmaxpu=1.2 model=1
New Load.motor_load_p6ulv2298_1 conn=wye bus1=p6ulv2298.1 kV=0.12 kW=1.1878181084104755 kvar=0.2375636216820951 Phases=1 Vminpu=0.0 Vmaxpu=1.2 model=1
New Load.motor_load_p6ulv2299_2 conn=wye bus1=p6ulv2299.2 kV=0.12 kW=1.2561409989150687 kvar=0.25122819978301375 Phases=1 Vminpu=0.0 Vmaxpu=1.2 model=1
New Load.motor_load_p6ulv2301_1 conn=wye bus1=p6ulv2301.1 kV=0.12 kW=1.060722184731739 kvar=0.2121444369463478 Phases=1 Vminpu=0.0 Vmaxpu=1.2 model=1
New Load.motor_load_p6ulv2303_2 conn=wye bus1=p6ulv2303.2 kV=0.12 kW=1.208799778244543 kvar=0.24175995564890862 Phases=1 Vminpu=0.0 Vmaxpu=1.2 model=1
New Load.motor_load_p6ulv2305_2 conn=wye bus1=p6ulv2305.2 kV=0.12 kW=1.0749167639391195 kvar=0.2149833527878239 Phases=1 Vminpu=0.0 Vmaxpu=1.2 model=1
New Load.motor_load_p6ulv2307_2 conn=wye bus1=p6ulv2307.2 kV=0.12 kW=1.2465512077431746 kvar=0.24931024154863493 Phases=1 Vminpu=0.0 Vmaxpu=1.2 model=1
New Load.motor_load_p6ulv2308_2 conn=wye bus1=p6ulv2308.2 kV=0.12 kW=1.0734398247265224 kvar=0.2146879649453045 Phases=1 Vminpu=0.0 Vmaxpu=1.2 model=1
New Load.motor_load_p6ulv2317_1 conn=wye bus1=p6ulv2317.1 kV=0.12 kW=1.1954385267683427 kvar=0.23908770535366855 Phases=1 Vminpu=0.0 Vmaxpu=1.2 model=1
New Load.motor_load_p6ulv2320_1 conn=wye bus1=p6ulv2320.1 kV=0.12 kW=1.2619263815174573 kvar=0.25238527630349145 Phases=1 Vminpu=0.0 Vmaxpu=1.2 model=1
New Load.motor_load_p6ulv2323_2 conn=wye bus1=p6ulv2323.2 kV=0.12 kW=1.059619595167887 kvar=0.21192391903357743 Phases=1 Vminpu=0.0 Vmaxpu=1.2 model=1
New Load.motor_load_p6ulv2324_1 conn=wye bus1=p6ulv2324.1 kV=0.12 kW=1.201819958228273 kvar=0.24036399164565458 Phases=1 Vminpu=0.0 Vmaxpu=1.2 model=1
New Load.motor_load_p6ulv2324_2 conn=wye bus1=p6ulv2324.2 kV=0.12 kW=1.082794197928786 kvar=0.21655883958575722 Phases=1 Vminpu=0.0 Vmaxpu=1.2 model=1
New Load.motor_load_p6ulv2325_1 conn=wye bus1=p6ulv2325.1 kV=0.12 kW=1.1231931388425003 kvar=0.22463862776850008 Phases=1 Vminpu=0.0 Vmaxpu=1.2 model=1
New Load.motor_load_p6ulv2326_1 conn=wye bus1=p6ulv2326.1 kV=0.12 kW=1.1357131604270216 kvar=0.22714263208540433 Phases=1 Vminpu=0.0 Vmaxpu=1.2 model=1
New Load.motor_load_p6ulv2326_2 conn=wye bus1=p6ulv2326.2 kV=0.12 kW=1.0541379244432576 kvar=0.21082758488865153 Phases=1 Vminpu=0.0 Vmaxpu=1.2 model=1
New Load.motor_load_p6ulv2328_2 conn=wye bus1=p6ulv2328.2 kV=0.12 kW=1.2327330107590673 kvar=0.24654660215181345 Phases=1 Vminpu=0.0 Vmaxpu=1.2 model=1
New Load.motor_load_p6ulv2329_2 conn=wye bus1=p6ulv2329.2 kV=0.12 kW=1.1013091067761887 kvar=0.22026182135523775 Phases=1 Vminpu=0.0 Vmaxpu=1.2 model=1
New Load.motor_load_p6ulv2395_2 conn=wye bus1=p6ulv2395.2 kV=0.12 kW=1.1300373538067001 kvar=0.22600747076134003 Phases=1 Vminpu=0.0 Vmaxpu=1.2 model=1
New Load.motor_load_p6ulv2442_2 conn=wye bus1=p6ulv2442.2 kV=0.12 kW=1.2565360158268364 kvar=0.2513072031653673 Phases=1 Vminpu=0.0 Vmaxpu=1.2 model=1
New Load.motor_load_p6ulv2461_1 conn=wye bus1=p6ulv2461.1 kV=0.12 kW=1.1986075847127786 kvar=0.23972151694255572 Phases=1 Vminpu=0.0 Vmaxpu=1.2 model=1
New Load.motor_load_p6ulv2463_1 conn=wye bus1=p6ulv2463.1 kV=0.12 kW=1.1465407804437855 kvar=0.2293081560887571 Phases=1 Vminpu=0.0 Vmaxpu=1.2 model=1
New Load.motor_load_p6ulv2464_2 conn=wye bus1=p6ulv2464.2 kV=0.12 kW=1.2189434350300352 kvar=0.24378868700600706 Phases=1 Vminpu=0.0 Vmaxpu=1.2 model=1
New Load.motor_load_p6ulv2465_1 conn=wye bus1=p6ulv2465.1 kV=0.12 kW=1.2376920120139896 kvar=0.24753840240279792 Phases=1 Vminpu=0.0 Vmaxpu=1.2 model=1
New Load.motor_load_p6ulv2466_2 conn=wye bus1=p6ulv2466.2 kV=0.12 kW=1.2174011003584189 kvar=0.2434802200716838 Phases=1 Vminpu=0.0 Vmaxpu=1.2 model=1
New Load.motor_load_p6ulv2468_1 conn=wye bus1=p6ulv2468.1 kV=0.12 kW=1.1750516967704978 kvar=0.23501033935409957 Phases=1 Vminpu=0.0 Vmaxpu=1.2 model=1
New Load.motor_load_p6ulv2469_1 conn=wye bus1=p6ulv2469.1 kV=0.12 kW=1.1037972799182687 kvar=0.22075945598365376 Phases=1 Vminpu=0.0 Vmaxpu=1.2 model=1
New Load.motor_load_p6ulv2471_2 conn=wye bus1=p6ulv2471.2 kV=0.12 kW=1.139855718847857 kvar=0.22797114376957142 Phases=1 Vminpu=0.0 Vmaxpu=1.2 model=1
New Load.motor_load_p6ulv2472_1 conn=wye bus1=p6ulv2472.1 kV=0.12 kW=1.0540681351559333 kvar=0.21081362703118667 Phases=1 Vminpu=0.0 Vmaxpu=1.2 model=1
New Load.motor_load_p6ulv2474_2 conn=wye bus1=p6ulv2474.2 kV=0.12 kW=1.1578296867571691 kvar=0.23156593735143383 Phases=1 Vminpu=0.0 Vmaxpu=1.2 model=1
New Load.motor_load_p6ulv2479_1 conn=wye bus1=p6ulv2479.1 kV=0.12 kW=1.141801910157272 kvar=0.22836038203145442 Phases=1 Vminpu=0.0 Vmaxpu=1.2 model=1
New Load.motor_load_p6ulv2480_1 conn=wye bus1=p6ulv2480.1 kV=0.12 kW=1.0556034604024125 kvar=0.2111206920804825 Phases=1 Vminpu=0.0 Vmaxpu=1.2 model=1
New Load.motor_load_p6ulv2480_2 conn=wye bus1=p6ulv2480.2 kV=0.12 kW=1.0818215948657235 kvar=0.2163643189731447 Phases=1 Vminpu=0.0 Vmaxpu=1.2 model=1
New Load.motor_load_p6ulv2481_1 conn=wye bus1=p6ulv2481.1 kV=0.12 kW=1.132247285430012 kvar=0.22644945708600242 Phases=1 Vminpu=0.0 Vmaxpu=1.2 model=1
New Load.motor_load_p6ulv2482_2 conn=wye bus1=p6ulv2482.2 kV=0.12 kW=1.1945422352581705 kvar=0.2389084470516341 Phases=1 Vminpu=0.0 Vmaxpu=1.2 model=1
New Load.motor_load_p6ulv2483_1 conn=wye bus1=p6ulv2483.1 kV=0.12 kW=1.1959193304837847 kvar=0.23918386609675696 Phases=1 Vminpu=0.0 Vmaxpu=1.2 model=1
New Load.motor_load_p6ulv2483_2 conn=wye bus1=p6ulv2483.2 kV=0.12 kW=1.1255128374087449 kvar=0.22510256748174898 Phases=1 Vminpu=0.0 Vmaxpu=1.2 model=1
New Load.motor_load_p6ulv2487_1 conn=wye bus1=p6ulv2487.1 kV=0.12 kW=1.1155016276654683 kvar=0.22310032553309367 Phases=1 Vminpu=0.0 Vmaxpu=1.2 model=1
New Load.motor_load_p6ulv2487_2 conn=wye bus1=p6ulv2487.2 kV=0.12 kW=1.1027294239842673 kvar=0.22054588479685347 Phases=1 Vminpu=0.0 Vmaxpu=1.2 model=1
New Load.motor_load_p6ulv2488_1 conn=wye bus1=p6ulv2488.1 kV=0.12 kW=1.057988179640783 kvar=0.2115976359281566 Phases=1 Vminpu=0.0 Vmaxpu=1.2 model=1
New Load.motor_load_p6ulv2490_2 conn=wye bus1=p6ulv2490.2 kV=0.12 kW=1.1270563757777474 kvar=0.22541127515554948 Phases=1 Vminpu=0.0 Vmaxpu=1.2 model=1
New Load.motor_load_p6ulv2494_1 conn=wye bus1=p6ulv2494.1 kV=0.12 kW=1.145380973810319 kvar=0.22907619476206378 Phases=1 Vminpu=0.0 Vmaxpu=1.2 model=1
New Load.motor_load_p6ulv2496_2 conn=wye bus1=p6ulv2496.2 kV=0.12 kW=1.2078131318033218 kvar=0.2415626263606644 Phases=1 Vminpu=0.0 Vmaxpu=1.2 model=1
New Load.motor_load_p6ulv2497_1 conn=wye bus1=p6ulv2497.1 kV=0.12 kW=1.218051424047557 kvar=0.2436102848095114 Phases=1 Vminpu=0.0 Vmaxpu=1.2 model=1
New Load.motor_load_p6ulv2498_2 conn=wye bus1=p6ulv2498.2 kV=0.12 kW=1.1548356551142693 kvar=0.23096713102285388 Phases=1 Vminpu=0.0 Vmaxpu=1.2 model=1
New Load.motor_load_p6ulv2499_1 conn=wye bus1=p6ulv2499.1 kV=0.12 kW=1.2416238946082263 kvar=0.24832477892164528 Phases=1 Vminpu=0.0 Vmaxpu=1.2 model=1