New Generator.pv_load_p6ulv248_2 conn=wye bus1=p6ulv248.2 kV=0.12 model=7 kW=0.21491247986205989 kvar=-0.0 Phases=1
New Generator.pv_load_p6ulv251_1 conn=wye bus1=p6ulv251.1 kV=0.12 model=7 kW=0.16080901712379822 kvar=-0.0 Phases=1
New Generator.pv_load_p6ulv253_1 conn=wye bus1=p6ulv253.1 kV=0.12 model=7 kW=0.24346858807010738 kvar=-0.0 Phases=1
New Generator.pv_load_p6ulv256_1 conn=wye bus1=p6ulv256.1 kV=0.12 model=7 kW=0.2675145715093348 kvar=-0.0 Phases=1
New Generator.pv_load_p6ulv257_1 conn=wye bus1=p6ulv257.1 kV=0.12 model=7 kW=0.360692757336341 kvar=-0.0 Phases=1
New Generator.pv_load_p6ulv257_2 conn=wye bus1=p6ulv257.2 kV=0.12 model=7 kW=0.360692757336341 kvar=-0.0 Phases=1
New Generator.pv_load_p6ulv258_1 conn=wye bus1=p6ulv258.1 kV=0.12 model=7 kW=0.26450882357943134 kvar=-0.0 Phases=1
New Generator.pv_load_p6ulv260_1 conn=wye bus1=p6ulv260.1 kV=0.12 model=7 kW=0.34265826975692043 kvar=-0.0 Phases=1
New Generator.pv_load_p6ulv261_1 conn=wye bus1=p6ulv261.1 kV=0.12 model=7 kW=0.18485500056302565 kvar=-0.0 Phases=1
New Generator.pv_load_p6ulv262_2 conn=wye bus1=p6ulv262.2 kV=0.12 model=7 kW=0.05861268578270278 kvar=-0.0 Phases=1
New Generator.pv_load_p6ulv263_1 conn=wye bus1=p6ulv263.1 kV=0.12 model=7 kW=0.26300594961447965 kvar=-0.0 Phases=1
New Generator.pv_load_p6ulv263_2 conn=wye bus1=p6ulv263.2 kV=0.12 model=7 kW=0.26300594961447965 kvar=-0.0 Phases=1
New Generator.pv_load_p6ulv265_1 conn=wye bus1=p6ulv265.1 kV=0.12 model=7 kW=0.4463580762125536 kvar=-0.0 Phases=1
New Generator.pv_load_p6ulv266_1 conn=wye bus1=p6ulv266.1 kV=0.12 model=7 kW=0.3065892945980793 kvar=-0.0 Phases=1
New Generator.pv_load_p6ulv267_2 conn=wye bus1=p6ulv267.2 kV=0.12 model=7 kW=1.4803458842170865 kvar=-0.0 Phases=1
New Generator.pv_load_p6ulv268_2 conn=wye bus1=p6ulv268.2 kV=0.12 model=7 kW=0.9438138672334653 kvar=-0.0 Phases=1
New Generator.pv_load_p6ulv273_2 conn=wye bus1=p6ulv273.2 kV=0.12 model=7 kW=0.1563003952289431 kvar=-0.0 Phases=1
New Generator.pv_load_p6ulv275_2 conn=wye bus1=p6ulv275.2 kV=0.12 model=7 kW=0.32762953010740326 kvar=-0.0 Phases=1
New Generator.pv_load_p6ulv276_1 conn=wye bus1=p6ulv276.1 kV=0.12 model=7 kW=0.19687799228263936 kvar=-0.0 Phases=1
New Generator.pv_load_p6ulv287_2 conn=wye bus1=p6ulv287.2 kV=0.12 model=7 kW=0.26150307564952796 kvar=-0.0 Phases=1
New Generator.pv_load_p6ulv289_2 conn=wye bus1=p6ulv289.2 kV=0.12 model=7 kW=0.16682051298360506 kvar=-0.0 Phases=1
New Generator.pv_load_p6ulv292_1 conn=wye bus1=p6ulv292.1 kV=0.12 model=7 kW=0.2675145715093348 kvar=-0.0 Phases=1
New Generator.pv_load_p6ulv295_1 conn=wye bus1=p6ulv295.1 kV=0.12 model=7 kW=0.34115539579196874 kvar=-0.0 Phases=1
New Generator.pv_load_p6ulv295_2 conn=wye bus1=p6ulv295.2 kV=0.12 model=7 kW=0.34115539579196874 kvar=-0.0 Phases=1
New Generator.pv_load_p6ulv298_1 conn=wye bus1=p6ulv298.1 kV=0.12 model=7 kW=0.12173399346026069 kvar=-0.0 Phases=1
New Generator.pv_load_p6ulv300_2 conn=wye bus1=p6ulv300.2 kV=0.12 model=7 kW=0.20890098400225304 kvar=-0.0 Phases=1
New Generator.pv_load_p6ulv301_1 conn=wye bus1=p6ulv301.1 kV=0.12 model=7 kW=2.4527203682804943 kvar=-0.0 Phases=1
New Generator.pv_load_p6ulv306_2 conn=wye bus1=p6ulv306.2 kV=0.12 model=7 kW=0.21791822779196332 kvar=-0.0 Phases=1
New Generator.pv_load_p6ulv308_2 conn=wye bus1=p6ulv308.2 kV=0.12 model=7 kW=0.11722537156540556 kvar=-0.0 Phases=1
New Generator.pv_load_p6ulv309_1 conn=wye bus1=p6ulv309.1 kV=0.12 model=7 kW=0.27352606736914165 kvar=-0.0 Phases=1
New Generator.pv_load_p6ulv309_2 conn=wye bus1=p6ulv309.2 kV=0.12 model=7 kW=0.27352606736914165 kvar=-0.0 Phases=1
New Generator.pv_load_p6ulv310_2 conn=wye bus1=p6ulv310.2 kV=0.12 model=7 kW=0.2795375632289485 kvar=-0.0 Phases=1
New Generator.pv_load_p6ulv313_1 conn=wye bus1=p6ulv313.1 kV=0.12 model=7 kW=0.3306352780373067 kvar=-0.0 Phases=1
New Generator.pv_load_p6ulv320_2 conn=wye bus1=p6ulv320.2 kV=0.12 model=7 kW=0.1232368674252124 kvar=-0.0 Phases=1
New Generator.pv_load_p6ulv321_1 conn=wye bus1=p6ulv321.1 kV=0.12 model=7 kW=0.40728335312380903 kvar=-0.0 Phases=1
New Generator.pv_load_p6ulv323_2 conn=wye bus1=p6ulv323.2 kV=0.12 model=7 kW=0.11121372541820221 kvar=-0.0 Phases=1
New Generator.pv_load_p6ulv328_2 conn=wye bus1=p6ulv328.2 kV=0.12 model=7 kW=0.24346858807010738 kvar=-0.0 Phases=1
New Generator.pv_load_p6ulv329_2 conn=wye bus1=p6ulv329.2 kV=0.12 model=7 kW=0.4448552022476019 kvar=-0.0 Phases=1
New Generator.pv_load_p6ulv333_2 conn=wye bus1=p6ulv332.2 kV=0.12 model=7 kW=0.2464743360000108 kvar=-0.0 Phases=1
New Generator.pv_load_p6ulv341_1 conn=wye bus1=p6ulv341.1 kV=0.12 model=7 kW=0.2164153538270116 kvar=-0.0 Phases=1
New Generator.pv_load_p6ulv342_1 conn=wye bus1=p6ulv342.1 kV=0.12 model=7 kW=0.25699445375467284 kvar=-0.0 Phases=1
New Generator.pv_load_p6ulv345_1 conn=wye bus1=p6ulv345.1 kV=0.12 model=7 kW=0.2449714620350591 kvar=-0.0 Phases=1
New Generator.pv_load_p6ulv348_2 conn=wye bus1=p6ulv348.2 kV=0.12 model=7 kW=0.2960691768434174 kvar=-0.0 Phases=1
New Generator.pv_load_p6ulv350_2 conn=wye bus1=p6ulv350.2 kV=0.12 model=7 kW=0.20890098400225304 kvar=-0.0 Phases=1
New Generator.pv_load_p6ulv353_1 conn=wye bus1=p6ulv353.1 kV=0.12 model=7 kW=0.26450882357943134 kvar=-0.0 Phases=1
New Generator.pv_load_p6ulv356_2 conn=wye bus1=p6ulv356.2 kV=0.12 model=7 kW=1.3736403298315503 kvar=-0.0 Phases=1
New Generator.pv_load_p6ulv357_2 conn=wye bus1=p6ulv357.2 kV=0.12 model=7 kW=0.4839299253363464 kvar=-0.0 Phases=1
New Generator.pv_load_p6ulv358_1 conn=wye bus1=p6ulv358.1 kV=0.12 model=7 kW=0.26150307564952796 kvar=-0.0 Phases=1
New Generator.pv_load_p6ulv359_2 conn=wye bus1=p6ulv359.2 kV=0.12 model=7 kW=0.2043923621073979 kvar=-0.0 Phases=1
New Generator.pv_load_p6ulv363_1 conn=wye bus1=p6ulv363.1 kV=0.12 model=7 kW=0.16231189108874994 kvar=-0.0 Phases=1
New Generator.pv_load_p6ulv366_2 conn=wye bus1=p6ulv366.2 kV=0.12 model=7 kW=0.3336410259672101 kvar=-0.0 Phases=1
New Generator.pv_load_p6ulv367_1 conn=wye bus1=p6ulv367.1 kV=0.12 model=7 kW=0.18635787452797736 kvar=-0.0 Phases=1
New Generator.pv_load_p6ulv369_1 conn=wye bus1=p6ulv369.1 kV=0.12 model=7 kW=0.2344513442803971 kvar=-0.0 Phases=1
New Generator.pv_load_p6ulv371_2 conn=wye bus1=p6ulv371.2 kV=0.12 model=7 kW=0.1923693703877842 kvar=-0.0 Phases=1
New Generator.pv_load_p6ulv372_2 conn=wye bus1=p6ulv372.2 kV=0.12 model=7 kW=0.1563003952289431 kvar=-0.0 Phases=1
New Generator.pv_load_p6ulv375_1 conn=wye bus1=p6ulv375.1 kV=0.12 model=7 kW=0.17283200884341193 kvar=-0.0 Phases=1
New Generator.pv_load_p6ulv377_2 conn=wye bus1=p6ulv377.2 kV=0.12 model=7 kW=0.3141036644228379 kvar=-0.0 Phases=1
New Generator.pv_load_p6ulv379_1 conn=wye bus1=p6ulv379.1 kV=0.12 model=7 kW=0.08867046565653004 kvar=-0.0 Phases=1
New Generator.pv_load_p6ulv380_2 conn=wye bus1=p6ulv380.2 kV=0.12 model=7 kW=0.05861268578270278 kvar=-0.0 Phases=1
New Generator.pv_load_p6ulv381_2 conn=wye bus1=p6ulv381.2 kV=0.12 model=7 kW=0.34566401768682387 kvar=-0.0 Phases=1
New Generator.pv_load_p6ulv382_1 conn=wye bus1=p6ulv382.1 kV=0.12 model=7 kW=0.12473974139016412 kvar=-0.0 Phases=1
New Generator.pv_load_p6ulv383_2 conn=wye bus1=p6ulv383.2 kV=0.12 model=7 kW=0.22843984842059023 kvar=-0.0 Phases=1
New Generator.pv_load_p6ulv385_1 conn=wye bus1=p6ulv385.1 kV=0.12 model=7 kW=0.2795375632289485 kvar=-0.0 Phases=1
New Generator.pv_load_p6ulv386_1 conn=wye bus1=p6ulv386.1 kV=0.12 model=7 kW=0.17583775677331534 kvar=-0.0 Phases=1
New Generator.pv_load_p6ulv387_1 conn=wye bus1=p6ulv387.1 kV=0.12 model=7 kW=0.47190693361673264 kvar=-0.0 Phases=1
New Generator.pv_load_p6ulv389_2 conn=wye bus1=p6ulv389.2 kV=0.12 model=7 kW=0.3802316217546783 kvar=-0.0 Phases=1
New Generator.pv_load_p6ulv394_1 conn=wye bus1=p6ulv394.1 kV=0.12 model=7 kW=0.18635787452797736 kvar=-0.0 Phases=1
New Generator.pv_load_p6ulv394_2 conn=wye bus1=p6ulv394.2 kV=0.12 model=7 kW=0.18635787452797736 kvar=-0.0 Phases=1
New Generator.pv_load_p6ulv398_1 conn=wye bus1=p6ulv398.1 kV=0.12 model=7 kW=0.25248583185981766 kvar=-0.0 Phases=1
New Generator.pv_load_p6ulv399_1 conn=wye bus1=p6ulv399.1 kV=0.12 model=7 kW=0.43283221052798815 kvar=-0.0 Phases=1
New Generator.pv_load_p6ulv400_1 conn=wye bus1=p6ulv400.1 kV=0.12 model=7 kW=0.2705203194392382 kvar=-0.0 Phases=1
New Generator.pv_load_p6ulv401_2 conn=wye bus1=p6ulv401.2 kV=0.12 model=7 kW=0.12774563960746405 kvar=-0.0 Phases=1
New Generator.pv_load_p6ulv408_2 conn=wye bus1=p6ulv408.2 kV=0.12 model=7 kW=0.25699445375467284 kvar=-0.0 Phases=1
New Generator.pv_load_p6ulv409_2 conn=wye bus1=p6ulv409.2 kV=0.12 model=7 kW=0.8927161524251072 kvar=-0.0 Phases=1
New Generator.pv_load_p6ulv415_1 conn=wye bus1=p6ulv415.1 kV=0.12 model=7 kW=0.12173399346026069 kvar=-0.0 Phases=1
New Generator.pv_load_p6ulv416_1 conn=wye bus1=p6ulv416.1 kV=0.12 model=7 kW=0.20739811003730133 kvar=-0.0 Phases=1
New Generator.pv_load_p6ulv417_1 conn=wye bus1=p6ulv417.1 kV=0.12 model=7 kW=0.2584973277196246 kvar=-0.0 Phases=1
New Generator.pv_load_p6ulv418_2 conn=wye bus1=p6ulv418.2 kV=0.12 model=7 kW=0.308092168563031 kvar=-0.0 Phases=1
New Generator.pv_load_p6ulv423_1 conn=wye bus1=p6ulv423.1 kV=0.12 model=7 kW=0.2449714620350591 kvar=-0.0 Phases=1
New Generator.pv_load_p6ulv425_1 conn=wye bus1=p6ulv425.1 kV=0.12 model=7 kW=0.3636985052662444 kvar=-0.0 Phases=1
New Generator.pv_load_p6ulv427_1 conn=wye bus1=p6ulv427.1 kV=0.12 model=7 kW=0.4208092188083745 kvar=-0.0 Phases=1
New Generator.pv_load_p6ulv428_2 conn=wye bus1=p6ulv428.2 kV=0.12 model=7 kW=0.30959504252798276 kvar=-0.0 Phases=1
New Generator.pv_load_p6ulv430_1 conn=wye bus1=p6ulv430.1 kV=0.12 model=7 kW=0.28404618512380364 kvar=-0.0 Phases=1
New Generator.pv_load_p6ulv430_2 conn=wye bus1=p6ulv430.2 kV=0.12 model=7 kW=0.28404618512380364 kvar=-0.0 Phases=1
New Generator.pv_load_p6ulv431_2 conn=wye bus1=p6ulv431.2 kV=0.12 model=7 kW=0.11121372541820221 kvar=-0.0 Phases=1
New Generator.pv_load_p6ulv433_2 conn=wye bus1=p6ulv433.2 kV=0.12 model=7 kW=0.20890098400225304 kvar=-0.0 Phases=1
New Generator.pv_load_p6ulv435_1 conn=wye bus1=p6ulv435.1 kV=0.12 model=7 kW=0.3832373696845817 kvar=-0.0 Phases=1
New Generator.pv_load_p6ulv436_2 conn=wye bus1=p6ulv436.2 kV=0.12 model=7 kW=0.5530636305980902 kvar=-0.0 Phases=1
New Generator.pv_load_p6ulv437_2 conn=wye bus1=p6ulv437.2 kV=0.12 model=7 kW=0.17884350470321878 kvar=-0.0 Phases=1
New Generator.pv_load_p6ulv439_2 conn=wye bus1=p6ulv439.2 kV=0.12 model=7 kW=0.21942110175691504 kvar=-0.0 Phases=1
New Generator.pv_load_p6ulv440_1 conn=wye bus1=p6ulv440.1 kV=0.12 model=7 kW=0.26450882357943134 kvar=-0.0 Phases=1
New Generator.pv_load_p6ulv441_2 conn=wye bus1=p6ulv441.2 kV=0.12 model=7 kW=0.19838086624759108 kvar=-0.0 Phases=1
New Generator.pv_load_p6ulv443_1 conn=wye bus1=p6ulv443.1 kV=0.12 model=7 kW=0.3171094123527413 kvar=-0.0 Phases=1
New Generator.pv_load_p6ulv451_1 conn=wye bus1=p6ulv451.1 kV=0.12 model=7 kW=0.3306352780373067 kvar=-0.0 Phases=1
New Generator.pv_load_p6ulv453_2 conn=wye bus1=p6ulv453.2 kV=0.12 model=7 kW=0.2810404371939002 kvar=-0.0 Phases=1
New Generator.pv_load_p6ulv454_2 conn=wye bus1=p6ulv454.2 kV=0.12 model=7 kW=0.18936362245788077 kvar=-0.0 Phases=1
New Generator.pv_load_p6ulv462_1 conn=wye bus1=p6ulv462.1 kV=0.12 model=7 kW=0.329132404072355 kvar=-0.0 Phases=1
New Generator.pv_load_p6ulv1592_1 conn=wye bus1=p6ulv1592.1 kV=0.12 model=7 kW=0.3486697656167273 kvar=-0.0 Phases=1
New Generator.pv_load_p6ulv1595_2 conn=wye bus1=p6ulv1595.2 kV=0.12 model=7 kW=0.3621956313012927 kvar=-0.0 Phases=1
New Generator.pv_load_p6ulv2249_2 conn=wye bus1=p6ulv2249.2 kV=0.12 model=7 kW=0.16381476505370163 kvar=-0.0 Phases=1
New Generator.pv_load_p6ulv2250_1 conn=wye bus1=p6ulv2250.1 kV=0.12 model=7 kW=0.5320233950887662 kvar=-0.0 Phases=1
New Generator.pv_load_p6ulv2252_2 conn=wye bus1=p6ulv2252.2 kV=0.12 model=7 kW=0.22092397572186676 kvar=-0.0 Phases=1
New Generator.pv_load_p6ulv2253_1 conn=wye bus1=p6ulv2253.1 kV=0.12 model=7 kW=0.44184945431769845 kvar=-0.0 Phases=1
New Generator.pv_load_p6ulv2255_2 conn=wye bus1=p6ulv2255.2 kV=0.12 model=7 kW=0.23895996617525225 kvar=-0.0 Phases=1
New Generator.pv_load_p6ulv2258_2 conn=wye bus1=p6ulv2258.2 kV=0.12 model=7 kW=0.37722587382477485 kvar=-0.0 Phases=1
New Generator.pv_load_p6ulv2260_1 conn=wye bus1=p6ulv2260.1 kV=0.12 model=7 kW=0.21340960589710817 kvar=-0.0 Phases=1
New Generator.pv_load_p6ulv2262_2 conn=wye bus1=p6ulv2262.2 kV=0.12 model=7 kW=0.20138661417749446 kvar=-0.0 Phases=1
New Generator.pv_load_p6ulv2263_1 conn=wye bus1=p6ulv2263.1 kV=0.12 model=7 kW=0.20890098400225304 kvar=-0.0 Phases=1
New Generator.pv_load_p6ulv2264_2 conn=wye bus1=p6ulv2264.2 kV=0.12 model=7 kW=0.09167621358643346 kvar=-0.0 Phases=1
New Generator.pv_load_p6ulv2266_1 conn=wye bus1=p6ulv2266.1 kV=0.12 model=7 kW=0.2164153538270116 kvar=-0.0 Phases=1
New Generator.pv_load_p6ulv2266_2 conn=wye bus1=p6ulv2266.2 kV=0.12 model=7 kW=0.2164153538270116 kvar=-0.0 Phases=1
New Generator.pv_load_p6ulv2267_1 conn=wye bus1=p6ulv2267.1 kV=0.12 model=7 kW=0.23895996617525225 kvar=-0.0 Phases=1
New Generator.pv_load_p6ulv2267_2 conn=wye bus1=p6ulv2267.2 kV=0.12 model=7 kW=0.23895996617525225 kvar=-0.0 Phases=1
New Generator.pv_load_p6ulv2269_1 conn=wye bus1=p6ulv2269.1 kV=0.12 model=7 kW=0.19537511831768767 kvar=-0.0 Phases=1
New Generator.pv_load_p6ulv2274_2 conn=wye bus1=p6ulv2274.2 kV=0.12 model=7 kW=0.3757214969858581 kvar=-0.0 Phases=1
New Generator.pv_load_p6ulv2277_2 conn=wye bus1=p6ulv2277.2 kV=0.12 model=7 kW=0.9783814713013197 kvar=-0.0 Phases=1
New Generator.pv_load_p6ulv2284_2 conn=wye bus1=p6ulv2284.2 kV=0.12 model=7 kW=1.384160447586212 kvar=-0.0 Phases=1
New Generator.pv_load_p6ulv2287_2 conn=wye bus1=p6ulv2287.2 kV=0.12 model=7 kW=0.3636985052662444 kvar=-0.0 Phases=1
New Generator.pv_load_p6ulv2289_2 conn=wye bus1=p6ulv2289.2 kV=0.12 model=7 kW=0.25248583185981766 kvar=-0.0 Phases=1
New Generator.pv_load_p6ulv2290_1 conn=wye bus1=p6ulv2290.1 kV=0.12 model=7 kW=0.329132404072355 kvar=-0.0 Phases=1
New Generator.pv_load_p6ulv2293_1 conn=wye bus1=p6ulv2293.1 kV=0.12 model=7 kW=0.19387224435273592 kvar=-0.0 Phases=1
New Generator.pv_load_p6ulv2295_2 conn=wye bus1=p6ulv2295.2 kV=0.12 model=7 kW=0.13676288339717432 kvar=-0.0 Phases=1
New Generator.pv_load_p6ulv2296_2 conn=wye bus1=p6ulv2296.2 kV=0.12 model=7 kW=0.3141036644228379 kvar=-0.0 Phases=1
New Generator.pv_load_p6ulv2297_1 conn=wye bus1=p6ulv2297.1 kV=0.12 model=7 kW=0.21040385796720473 kvar=-0.0 Phases=1
New Generator.pv_load_p6ulv2298_1 conn=wye bus1=p6ulv2298.1 kV=0.12 model=7 kW=0.8836989086353969 kvar=-0.0 Phases=1
New Generator.pv_load_p6ulv2298_2 conn=wye bus1=p6ulv2298.2 kV=0.12 model=7 kW=0.8836989086353969 kvar=-0.0 Phases=1
New Generator.pv_load_p6ulv2300_1 conn=wye bus1=p6ulv2300.1 kV=0.12 model=7 kW=0.23294847031544538 kvar=-0.0 Phases=1
New Generator.pv_load_p6ulv2301_2 conn=wye bus1=p6ulv2301.2 kV=0.12 model=7 kW=0.3471668916517756 kvar=-0.0 Phases=1
New Generator.pv_load_p6ulv2304_2 conn=wye bus1=p6ulv2304.2 kV=0.12 model=7 kW=0.28404618512380364 kvar=-0.0 Phases=1
New Generator.pv_load_p6ulv2306_2 conn=wye bus1=p6ulv2306.2 kV=0.12 model=7 kW=0.28855480701865877 kvar=-0.0 Phases=1
New Generator.pv_load_p6ulv2308_2 conn=wye bus1=p6ulv2308.2 kV=0.12 model=7 kW=0.24797720996496253 kvar=-0.0 Phases=1
New Generator.pv_load_p6ulv2317_2 conn=wye bus1=p6ulv2317.2 kV=0.12 model=7 kW=0.28855480701865877 kvar=-0.0 Phases=1
New Generator.pv_load_p6ulv2318_1 conn=wye bus1=p6ulv2318.1 kV=0.12 model=7 kW=0.38624311761448504 kvar=-0.0 Phases=1
New Generator.pv_load_p6ulv2320_1 conn=wye bus1=p6ulv2320.1 kV=0.12 model=7 kW=0.5425435128434282 kvar=-0.0 Phases=1
New Generator.pv_load_p6ulv2324_2 conn=wye bus1=p6ulv2324.2 kV=0.12 model=7 kW=0.2164153538270116 kvar=-0.0 Phases=1
New Generator.pv_load_p6ulv2325_1 conn=wye bus1=p6ulv2325.1 kV=0.12 model=7 kW=0.28404618512380364 kvar=-0.0 Phases=1
New Generator.pv_load_p6ulv2395_2 conn=wye bus1=p6ulv2395.2 kV=0.12 model=7 kW=0.40427760519390565 kvar=-0.0 Phases=1
New Generator.pv_load_p6ulv2428 conn=wye bus1=p6ulv2428.1.2.3 kV=0.48 model=7 kW=7.718850856429895 kvar=-0.0 Phases=3
New Generator.pv_load_p6ulv2436 conn=wye bus1=p6ulv2436.1.2.3 kV=0.48 model=7 kW=14.710280656343862 kvar=-0.0 Phases=3
New Generator.pv_load_p6ulv2456_2 conn=wye bus1=p6ulv2456.2 kV=0.12 model=7 kW=0.15028889936913625 kvar=-0.0 Phases=1
New Generator.pv_load_p6ulv2458_1 conn=wye bus1=p6ulv2458.1 kV=0.12 model=7 kW=0.1322542615023192 kvar=-0.0 Phases=1
New Generator.pv_load_p6ulv2459_1 conn=wye bus1=p6ulv2459.1 kV=0.12 model=7 kW=1.9161793340530833 kvar=-0.0 Phases=1
New Generator.pv_load_p6ulv2460_1 conn=wye bus1=p6ulv2460.1 kV=0.12 model=7 kW=1.1061257583222153 kvar=-0.0 Phases=1
New Generator.pv_load_p6ulv2461_1 conn=wye bus1=p6ulv2461.1 kV=0.12 model=7 kW=0.8987276482849139 kvar=-0.0 Phases=1
New Generator.pv_load_p6ulv2461_2 conn=wye bus1=p6ulv2461.2 kV=0.12 model=7 kW=0.8987276482849139 kvar=-0.0 Phases=1
New Generator.pv_load_p6ulv2463_1 conn=wye bus1=p6ulv2463.1 kV=0.12 model=7 kW=0.5154902786003324 kvar=-0.0 Phases=1
New Generator.pv_load_p6ulv2466_2 conn=wye bus1=p6ulv2466.2 kV=0.12 model=7 kW=1.4247380446399085 kvar=-0.0 Phases=1
New Generator.pv_load_p6ulv2468_1 conn=wye bus1=p6ulv2468.1 kV=0.12 model=7 kW=0.34566401768682387 kvar=-0.0 Phases=1
New Generator.pv_load_p6ulv2469_1 conn=wye bus1=p6ulv2469.1 kV=0.12 model=7 kW=0.13676288339717432 kvar=-0.0 Phases=1
New Generator.pv_load_p6ulv2469_2 conn=wye bus1=p6ulv2469.2 kV=0.12 model=7 kW=0.13676288339717432 kvar=-0.0 Phases=1
New Generator.pv_load_p6ulv2470_1 conn=wye bus1=p6ulv2470.1 kV=0.12 model=7 kW=0.2043923621073979 kvar=-0.0 Phases=1
New Generator.pv_load_p6ulv2472_1 conn=wye bus1=p6ulv2472.1 kV=0.12 model=7 kW=0.5876297317919795 kvar=-0.0 Phases=1
New Generator.pv_load_p6ulv2472_2 conn=wye bus1=p6ulv2472.2 kV=0.12 model=7 kW=0.5876297317919795 kvar=-0.0 Phases=1
New Generator.pv_load_p6ulv2474_2 conn=wye bus1=p6ulv2474.2 kV=0.12 model=7 kW=1.2864736398643508 kvar=-0.0 Phases=1
New Generator.pv_load_p6ulv2477_1 conn=wye bus1=p6ulv2477.1 kV=0.12 model=7 kW=0.15028889936913625 kvar=-0.0 Phases=1
New Generator.pv_load_p6ulv2480_2 conn=wye bus1=p6ulv2480.2 kV=0.12 model=7 kW=0.24346858807010738 kvar=-0.0 Phases=1
New Generator.pv_load_p6ulv2483_2 conn=wye bus1=p6ulv2483.2 kV=0.12 model=7 kW=1.409709304990391 kvar=-0.0 Phases=1
New Generator.pv_load_p6ulv2484_2 conn=wye bus1=p6ulv2484.2 kV=0.12 model=7 kW=1.0610395393736638 kvar=-0.0 Phases=1
New Generator.pv_load_p6ulv2486_1 conn=wye bus1=p6ulv2486.1 kV=0.12 model=7 kW=0.2660116975443831 kvar=-0.0 Phases=1
New Generator.pv_load_p6ulv2486_2 conn=wye bus1=p6ulv2486.2 kV=0.12 model=7 kW=0.2660116975443831 kvar=-0.0 Phases=1
New Generator.pv_load_p6ulv2490_1 conn=wye bus1=p6ulv2490.1 kV=0.12 model=7 kW=0.39075173950934017 kvar=-0.0 Phases=1
New Generator.pv_load_p6ulv2490_2 conn=wye bus1=p6ulv2490.2 kV=0.12 model=7 kW=0.39075173950934017 kvar=-0.0 Phases=1
New Generator.pv_load_p6ulv2493_2 conn=wye bus1=p6ulv2493.2 kV=0.12 model=7 kW=0.22392972365177016 kvar=-0.0 Phases=1
New Generator.pv_load_p6ulv2494_1 conn=wye bus1=p6ulv2494.1 kV=0.12 model=7 kW=0.10971085145325049 kvar=-0.0 Phases=1
New Generator.pv_load_p6ulv2495_1 conn=wye bus1=p6ulv2495.1 kV=0.12 model=7 kW=0.41028910105371247 kvar=-0.0 Phases=1
New Generator.pv_load_p6ulv2496_1 conn=wye bus1=p6ulv2496.1 kV=0.12 model=7 kW=0.18936362245788077 kvar=-0.0 Phases=1
New Generator.pv_load_p6ulv2498_2 conn=wye bus1=p6ulv2498.2 kV=0.12 model=7 kW=0.5380348909485729 kvar=-0.0 Phases=1
New Generator.pv_load_p6ulv2500_2 conn=wye bus1=p6ulv2500.2 kV=0.12 model=7 kW=0.2344513442803971 kvar=-0.0 Phases=1
New Generator.pv_load_p6ulv2502_1 conn=wye bus1=p6ulv2502.1 kV=0.12 model=7 kW=0.7018496560022748 kvar=-0.0 Phases=1
New Generator.pv_load_p6ulv2505_1 conn=wye bus1=p6ulv2505.1 kV=0.12 model=7 kW=0.2164153538270116 kvar=-0.0 Phases=1
New Generator.pv_load_p6ulv2506_1 conn=wye bus1=p6ulv2506.1 kV=0.12 model=7 kW=0.21491247986205989 kvar=-0.0 Phases=1
New Generator.pv_load_p6ulv2508_2 conn=wye bus1=p6ulv2508.2 kV=0.12 model=7 kW=2.0198776376347514 kvar=-0.0 Phases=1
New Generator.pv_load_p6ulv2510_2 conn=wye bus1=p6ulv2510.2 kV=0.12 model=7 kW=0.3231209082125482 kvar=-0.0 Phases=1
New Generator.pv_load_p6ulv2511_1 conn=wye bus1=p6ulv2511.1 kV=0.12 model=7 kW=0.3050864206331276 kvar=-0.0 Phases=1
New Generator.pv_load_p6ulv2513_2 conn=wye bus1=p6ulv2513.2 kV=0.12 model=7 kW=0.32762953010740326 kvar=-0.0 Phases=1
New Generator.pv_load_p6ulv2514_1 conn=wye bus1=p6ulv2514.1 kV=0.12 model=7 kW=0.8521385553714109 kvar=-0.0 Phases=1
New Generator.pv_load_p6ulv2516_2 conn=wye bus1=p6ulv2516.2 kV=0.12 model=7 kW=0.33213815200225844 kvar=-0.0 Phases=1
New Generator.pv_load_p6ulv2517_2 conn=wye bus1=p6ulv2517.2 kV=0.12 model=7 kW=0.3020806727032242 kvar=-0.0 Phases=1
New Generator.pv_load_p6ulv2518_2 conn=wye bus1=p6ulv2518.2 kV=0.12 model=7 kW=0.470404059651781 kvar=-0.0 Phases=1
New Generator.pv_load_p6ulv2519_2 conn=wye bus1=p6ulv2519.2 kV=0.12 model=7 kW=0.20288948814244617 kvar=-0.0 Phases=1
New Generator.pv_load_p6ulv2520_1 conn=wye bus1=p6ulv2520.1 kV=0.12 model=7 kW=0.15179177333408797 kvar=-0.0 Phases=1
New Generator.pv_load_p6ulv2527_1 conn=wye bus1=p6ulv2527.1 kV=0.12 model=7 kW=0.23895996617525225 kvar=-0.0 Phases=1
New Generator.pv_load_p6ulv2527_2 conn=wye bus1=p6ulv2527.2 kV=0.12 model=7 kW=0.23895996617525225 kvar=-0.0 Phases=1
New Generator.pv_load_p6ulv2530_2 conn=wye bus1=p6ulv2529.2 kV=0.12 model=7 kW=0.12774563960746405 kvar=-0.0 Phases=1
New Generator.pv_load_p6ulv2534_2 conn=wye bus1=p6ulv2534.2 kV=0.12 model=7 kW=0.37421862302090636 kvar=-0.0 Phases=1
New Generator.pv_load_p6ulv2535_2 conn=wye bus1=p6ulv2535.2 kV=0.12 model=7 kW=0.18936362245788077 kvar=-0.0 Phases=1
New Generator.pv_load_p6ulv2539_2 conn=wye bus1=p6ulv2539.2 kV=0.12 model=7 kW=0.308092168563031 kvar=-0.0 Phases=1
New Generator.pv_load_p6ulv2543_1 conn=wye bus1=p6ulv2543.1 kV=0.12 model=7 kW=0.20890098400225304 kvar=-0.0 Phases=1
New Generator.pv_load_p6ulv2545_2 conn=wye bus1=p6ulv2545.2 kV=0.12 model=7 kW=0.33213815200225844 kvar=-0.0 Phases=1
New Generator.pv_load_p6ulv2546_1 conn=wye bus1=p6ulv2546.1 kV=0.12 model=7 kW=0.09017333962148176 kvar=-0.0 Phases=1
New Generator.pv_load_p6ulv2550_2 conn=wye bus1=p6ulv2550.2 kV=0.12 model=7 kW=0.11872824553035728 kvar=-0.0 Phases=1
New Generator.pv_load_p6ulv2552_1 conn=wye bus1=p6ulv2552.1 kV=0.12 model=7 kW=0.1803463786681705 kvar=-0.0 Phases=1
New Generator.pv_load_p6ulv2556_1 conn=wye bus1=p6ulv2556.1 kV=0.12 model=7 kW=0.17583775677331534 kvar=-0.0 Phases=1
New Generator.pv_load_p6ulv2557_1 conn=wye bus1=p6ulv2557.1 kV=0.12 model=7 kW=0.13976863132707776 kvar=-0.0 Phases=1
New Generator.pv_load_p6ulv2558_1 conn=wye bus1=p6ulv2558.1 kV=0.12 model=7 kW=0.1322542615023192 kvar=-0.0 Phases=1
New Generator.pv_load_p6ulv2558_2 conn=wye bus1=p6ulv2558.2 kV=0.12 model=7 kW=0.1322542615023192 kvar=-0.0 Phases=1
New Generator.pv_load_p6ulv2559_2 conn=wye bus1=p6ulv2559.2 kV=0.12 model=7 kW=0.16682051298360506 kvar=-0.0 Phases=1
New Generator.pv_load_p6ulv2560_2 conn=wye bus1=p6ulv2560.2 kV=0.12 model=7 kW=0.08265896979672317 kvar=-0.0 Phases=1
New Generator.pv_load_p6ulv2565_2 conn=wye bus1=p6ulv2565.2 kV=0.12 model=7 kW=0.10670510352334708 kvar=-0.0 Phases=1
New Generator.pv_load_p6ulv2566_1 conn=wye bus1=p6ulv2566.1 kV=0.12 model=7 kW=0.25098295789486597 kvar=-0.0 Phases=1
New Generator.pv_load_p6ulv2567_2 conn=wye bus1=p6ulv2567.2 kV=0.12 model=7 kW=0.14277437925698117 kvar=-0.0 Phases=1
New Generator.pv_load_p6ulv2569_2 conn=wye bus1=p6ulv2569.2 kV=0.12 model=7 kW=0.14728315143923282 kvar=-0.0 Phases=1
New Generator.pv_load_p6ulv2571_1 conn=wye bus1=p6ulv2571.1 kV=0.12 model=7 kW=0.7484387489157778 kvar=-0.0 Phases=1
New Generator.pv_load_p6ulv2572_1 conn=wye bus1=p6ulv2572.1 kV=0.12 model=7 kW=0.6086699673013035 kvar=-0.0 Phases=1
New Generator.pv_load_p6ulv2573_2 conn=wye bus1=p6ulv2573.2 kV=0.12 model=7 kW=0.3020806727032242 kvar=-0.0 Phases=1
New Generator.pv_load_p6ulv2579_1 conn=wye bus1=p6ulv2579.1 kV=0.12 model=7 kW=0.5756067400723658 kvar=-0.0 Phases=1
New Generator.pv_load_p6ulv2579_2 conn=wye bus1=p6ulv2579.2 kV=0.12 model=7 kW=0.5756067400723658 kvar=-0.0 Phases=1
New Generator.pv_load_p6ulv2581_1 conn=wye bus1=p6ulv2581.1 kV=0.12 model=7 kW=0.22242684968681845 kvar=-0.0 Phases=1
New Generator.pv_load_p6ulv2581_2 conn=wye bus1=p6ulv2581.2 kV=0.12 model=7 kW=0.22242684968681845 kvar=-0.0 Phases=1
New Generator.pv_load_p6ulv2582_1 conn=wye bus1=p6ulv2582.1 kV=0.12 model=7 kW=0.2344513442803971 kvar=-0.0 Phases=1
New Generator.pv_load_p6ulv3296_2 conn=wye bus1=p6ulv3296.2 kV=0.12 model=7 kW=1.7989551647868498 kvar=-0.0 Phases=1
New Generator.pv_load_p6ulv3299_2 conn=wye bus1=p6ulv3299.2 kV=0.12 model=7 kW=1.5073976155862174 kvar=-0.0 Phases=1
New Generator.pv_load_p6ulv3301_2 conn=wye bus1=p6ulv3301.2 kV=0.12 model=7 kW=0.28855480701865877 kvar=-0.0 Phases=1
New Generator.pv_load_p6ulv3303_2 conn=wye bus1=p6ulv3303.2 kV=0.12 model=7 kW=0.7649703625302466 kvar=-0.0 Phases=1
New Generator.pv_load_p6ulv3314_1 conn=wye bus1=p6ulv3314.1 kV=0.12 model=7 kW=0.17283200884341193 kvar=-0.0 Phases=1
New Generator.pv_load_p6ulv3314_2 conn=wye bus1=p6ulv3314.2 kV=0.12 model=7 kW=0.17283200884341193 kvar=-0.0 Phases=1
New Generator.pv_load_p6ulv3315_2 conn=wye bus1=p6ulv3315.2 kV=0.12 model=7 kW=0.12924851357241576 kvar=-0.0 Phases=1
New Generator.pv_load_p6ulv3316_1 conn=wye bus1=p6ulv3316.1 kV=0.12 model=7 kW=0.18936362245788077 kvar=-0.0 Phases=1
New Generator.pv_load_p6ulv3323_1 conn=wye bus1=p6ulv3322.1 kV=0.12 model=7 kW=0.26450882357943134 kvar=-0.0 Phases=1
New Generator.pv_load_p6ulv3326 conn=wye bus1=p6ulv3326.1.2.3 kV=0.48 model=7 kW=8.353063669639518 kvar=-0.0 Phases=3
New Generator.pv_load_p6ulv3329_2 conn=wye bus1=p6ulv3329.2 kV=0.12 model=7 kW=0.5891326057569313 kvar=-0.0 Phases=1
New Generator.pv_load_p6ulv3330_1 conn=wye bus1=p6ulv3330.1 kV=0.12 model=7 kW=0.6507504383199515 kvar=-0.0 Phases=1
New Generator.pv_load_p6ulv3334_2 conn=wye bus1=p6ulv3334.2 kV=0.12 model=7 kW=0.42231209277332615 kvar=-0.0 Phases=1
New Generator.pv_load_p6ulv3336_1 conn=wye bus1=p6ulv3336.1 kV=0.12 model=7 kW=1.865081619244725 kvar=-0.0 Phases=1
New Generator.pv_load_p6ulv3337_2 conn=wye bus1=p6ulv3337.2 kV=0.12 model=7 kW=0.47942130344149125 kvar=-0.0 Phases=1
New Generator.pv_load_p6ulv3340_1 conn=wye bus1=p6ulv3340.1 kV=0.12 model=7 kW=0.4899414211961533 kvar=-0.0 Phases=1
New Generator.pv_load_p6ulv3344_1 conn=wye bus1=p6ulv3344.1 kV=0.12 model=7 kW=0.21942110175691504 kvar=-0.0 Phases=1
New Generator.pv_load_p6ulv3595_1 conn=wye bus1=p6ulv3595.1 kV=0.12 model=7 kW=2.4211600150165085 kvar=-0.0 Phases=1
New Generator.pv_load_p6ulv3595_2 conn=wye bus1=p6ulv3595.2 kV=0.12 model=7 kW=2.4211600150165085 kvar=-0.0 Phases=1
New Generator.pv_load_p6ulv3602_1 conn=wye bus1=p6ulv3602.1 kV=0.12 model=7 kW=0.40427760519390565 kvar=-0.0 Phases=1
New Generator.pv_load_p6ulv3608_2 conn=wye bus1=p6ulv3608.2 kV=0.12 model=7 kW=0.6327159507405309 kvar=-0.0 Phases=1
New Generator.pv_load_p6ulv3618_1 conn=wye bus1=p6ulv3618.1 kV=0.12 model=7 kW=0.07664732364951983 kvar=-0.0 Phases=1
New Generator.pv_load_p6ulv3619_1 conn=wye bus1=p6ulv3619.1 kV=0.12 model=7 kW=0.08566471772662661 kvar=-0.0 Phases=1
New Generator.pv_load_p6ulv3621_1 conn=wye bus1=p6ulv3621.1 kV=0.12 model=7 kW=0.09468196151633687 kvar=-0.0 Phases=1
New Generator.pv_load_p6ulv3625_1 conn=wye bus1=p6ulv3625.1 kV=0.12 model=7 kW=0.5215017744601392 kvar=-0.0 Phases=1
New Generator.pv_load_p6ulv3626_1 conn=wye bus1=p6ulv3626.1 kV=0.12 model=7 kW=0.34115539579196874 kvar=-0.0 Phases=1
New Generator.pv_load_p6ulv5029_2 conn=wye bus1=p6ulv5029.2 kV=0.12 model=7 kW=0.360692757336341 kvar=-0.0 Phases=1
New Generator.pv_load_p6ulv5032_1 conn=wye bus1=p6ulv5032.1 kV=0.12 model=7 kW=0.23144559635049367 kvar=-0.0 Phases=1
New Generator.pv_load_p6ulv5032_2 conn=wye bus1=p6ulv5032.2 kV=0.12 model=7 kW=0.23144559635049367 kvar=-0.0 Phases=1
New Generator.pv_load_p6ulv5034_1 conn=wye bus1=p6ulv5034.1 kV=0.12 model=7 kW=0.19537511831768767 kvar=-0.0 Phases=1
New Generator.pv_load_p6ulv5036_2 conn=wye bus1=p6ulv5036.2 kV=0.12 model=7 kW=0.3546812614765341 kvar=-0.0 Phases=1
New Generator.pv_load_p6ulv5042_1 conn=wye bus1=p6ulv5042.1 kV=0.12 model=7 kW=0.1818492526331222 kvar=-0.0 Phases=1
New Generator.pv_load_p6ulv5045_2 conn=wye bus1=p6ulv5045.2 kV=0.12 model=7 kW=1.8695902411395802 kvar=-0.0 Phases=1
New Generator.pv_load_p6ulv5053_2 conn=wye bus1=p6ulv5053.2 kV=0.12 model=7 kW=0.19838086624759108 kvar=-0.0 Phases=1
New Generator.pv_load_p6ulv5054_1 conn=wye bus1=p6ulv5054.1 kV=0.12 model=7 kW=0.12774563960746405 kvar=-0.0 Phases=1
New Generator.pv_load_p6ulv5055_2 conn=wye bus1=p6ulv5055.2 kV=0.12 model=7 kW=0.2464743360000108 kvar=-0.0 Phases=1
New Generator.pv_load_p6ulv5070_2 conn=wye bus1=p6ulv5070.2 kV=0.12 model=7 kW=0.506473034810622 kvar=-0.0 Phases=1
New Generator.pv_load_p6ulv5081_2 conn=wye bus1=p6ulv5081.2 kV=0.12 model=7 kW=0.1232368674252124 kvar=-0.0 Phases=1
New Generator.pv_load_p6ulv5084_1 conn=wye bus1=p6ulv5084.1 kV=0.12 model=7 kW=0.11421962363550214 kvar=-0.0 Phases=1
New Generator.pv_load_p6ulv5092_2 conn=wye bus1=p6ulv5092.2 kV=0.12 model=7 kW=0.19537511831768767 kvar=-0.0 Phases=1
New Generator.pv_load_p6ulv5095_1 conn=wye bus1=p6ulv5095.1 kV=0.12 model=7 kW=0.37722587382477485 kvar=-0.0 Phases=1
New Generator.pv_load_p6ulv5096_2 conn=wye bus1=p6ulv5096.2 kV=0.12 model=7 kW=0.14127150529202945 kvar=-0.0 Phases=1
New Generator.pv_load_p6ulv5097_1 conn=wye bus1=p6ulv5097.1 kV=0.12 model=7 kW=0.1818492526331222 kvar=-0.0 Phases=1
New Generator.pv_load_p6ulv5099_1 conn=wye bus1=p6ulv5099.1 kV=0.12 model=7 kW=0.3697100011260513 kvar=-0.0 Phases=1
New Generator.pv_load_p6ulv5100_1 conn=wye bus1=p6ulv5100.1 kV=0.12 model=7 kW=0.3471668916517756 kvar=-0.0 Phases=1
New Generator.pv_load_p6ulv5104_2 conn=wye bus1=p6ulv5104.2 kV=0.12 model=7 kW=0.6101728412662552 kvar=-0.0 Phases=1