New Load.BB_51067432_0_1 bus1=DEV_51067434_0_1.1 Phases=1 kV =.240 model=1 kW=13.294496 pf=0.98 yearly=m3loadmult
New Load.OH_260847_1_1 bus1=DEV_260853_1_1.1 Phases=1 kV =.240 model=1 kW=10.669286 pf=0.98 yearly=m3loadmult
New Load.OH_260847_2_1 bus1=DEV_260853_2_1.3 Phases=1 kV =.240 model=1 kW=10.669286 pf=0.98 yearly=m3loadmult
New Load.OH_260849_1_1 bus1=DEV_260852_1_1.1 Phases=1 kV =.240 model=1 kW=5.915096 pf=0.98 yearly=m3loadmult
New Load.OH_260849_2_1 bus1=DEV_260852_2_1.2 Phases=1 kV =.240 model=1 kW=5.915096 pf=0.98 yearly=m3loadmult
New Load.OH_260850_1_1 bus1=DEV_260851_1_1.1 Phases=1 kV =.240 model=1 kW=3.1510325 pf=0.98 yearly=m3loadmult
New Load.OH_260850_1_2 bus1=DEV_260851_1_2.1 Phases=1 kV =.240 model=1 kW=3.1510325 pf=0.98 yearly=m3loadmult
New Load.OH_260850_2_1 bus1=DEV_260851_2_1.3 Phases=1 kV =.240 model=1 kW=3.1510325 pf=0.98 yearly=m3loadmult
New Load.OH_260850_2_2 bus1=DEV_260851_2_2.3 Phases=1 kV =.240 model=1 kW=3.1510325 pf=0.98 yearly=m3loadmult
New Load.OH_260930_1_1 bus1=DEV_51187136_1_1.1 Phases=1 kV =.240 model=1 kW=3.123392 pf=0.98 yearly=m3loadmult
New Load.OH_260930_1_2 bus1=DEV_51187136_1_2.1 Phases=1 kV =.240 model=1 kW=3.123392 pf=0.98 yearly=m3loadmult
New Load.OH_260930_2_1 bus1=DEV_51187136_2_1.3 Phases=1 kV =.240 model=1 kW=3.123392 pf=0.98 yearly=m3loadmult
New Load.OH_260930_2_2 bus1=DEV_51187136_2_2.3 Phases=1 kV =.240 model=1 kW=3.123392 pf=0.98 yearly=m3loadmult
New Load.OH_260932_1_1 bus1=DEV_260933_1_1.1 Phases=1 kV =.240 model=1 kW=4.698908 pf=0.98 yearly=m3loadmult
New Load.OH_260932_2_1 bus1=DEV_260933_2_1.3 Phases=1 kV =.240 model=1 kW=4.698908 pf=0.98 yearly=m3loadmult
New Load.OH_260937_1_1 bus1=NODE_630695_1_1.1 Phases=1 kV =.240 model=1 kW=3.151033 pf=0.98 yearly=m3loadmult
New Load.OH_260937_2_1 bus1=NODE_630695_2_1.3 Phases=1 kV =.240 model=1 kW=3.151033 pf=0.98 yearly=m3loadmult
New Load.OH_260945_0_1 bus1=NODE_630695_0_1.3 Phases=1 kV =.240 model=1 kW=5.334643 pf=0.98 yearly=m3loadmult
New Load.OH_260945_0_2 bus1=NODE_630695_0_2.3 Phases=1 kV =.240 model=1 kW=5.334643 pf=0.98 yearly=m3loadmult
New Load.OH_260946_0_1 bus1=DEV_260949_0_1.1 Phases=1 kV =.240 model=1 kW=2.140175 pf=0.98 yearly=m3loadmult
New Load.OH_260946_0_2 bus1=DEV_260949_0_2.1 Phases=1 kV =.240 model=1 kW=2.140175 pf=0.98 yearly=m3loadmult
New Load.OH_260946_0_3 bus1=DEV_260949_0_3.1 Phases=1 kV =.240 model=1 kW=2.140175 pf=0.98 yearly=m3loadmult
New Load.OH_260946_0_4 bus1=DEV_260949_0_4.1 Phases=1 kV =.240 model=1 kW=2.140175 pf=0.98 yearly=m3loadmult
New Load.OH_260946_0_5 bus1=DEV_260949_0_5.1 Phases=1 kV =.240 model=1 kW=2.140175 pf=0.98 yearly=m3loadmult
New Load.OH_260946_0_6 bus1=DEV_260949_0_6.1 Phases=1 kV =.240 model=1 kW=2.140175 pf=0.98 yearly=m3loadmult
New Load.OH_260946_0_7 bus1=DEV_260949_0_7.1 Phases=1 kV =.240 model=1 kW=2.140175 pf=0.98 yearly=m3loadmult
New Load.OH_261400_1_1 bus1=NODE_11021972_1_1.1 Phases=1 kV =.240 model=1 kW=2.874626 pf=0.98 yearly=m3loadmult
New Load.OH_261400_1_2 bus1=NODE_11021972_1_2.1 Phases=1 kV =.240 model=1 kW=2.874626 pf=0.98 yearly=m3loadmult
New Load.OH_261400_2_1 bus1=NODE_11021972_2_1.2 Phases=1 kV =.240 model=1 kW=2.874626 pf=0.98 yearly=m3loadmult
New Load.OH_261400_2_2 bus1=NODE_11021972_2_2.2 Phases=1 kV =.240 model=1 kW=2.874626 pf=0.98 yearly=m3loadmult
New Load.OH_261479_1_1 bus1=DEV_261481_1_1.1 Phases=1 kV =.240 model=1 kW=3.04047 pf=0.98 yearly=m3loadmult
New Load.OH_261479_1_2 bus1=DEV_261481_1_2.1 Phases=1 kV =.240 model=1 kW=3.04047 pf=0.98 yearly=m3loadmult
New Load.OH_261479_1_3 bus1=DEV_261481_1_3.1 Phases=1 kV =.240 model=1 kW=3.04047 pf=0.98 yearly=m3loadmult
New Load.OH_261479_2_1 bus1=DEV_261481_2_1.3 Phases=1 kV =.240 model=1 kW=3.04047 pf=0.98 yearly=m3loadmult
New Load.OH_261479_2_2 bus1=DEV_261481_2_2.3 Phases=1 kV =.240 model=1 kW=3.04047 pf=0.98 yearly=m3loadmult
New Load.OH_261479_2_3 bus1=DEV_261481_2_3.3 Phases=1 kV =.240 model=1 kW=3.04047 pf=0.98 yearly=m3loadmult
New Load.OH_261483_1_1 bus1=DEV_261484_1_1.1 Phases=1 kV =.240 model=1 kW=3.79598066667 pf=0.98 yearly=m3loadmult
New Load.OH_261483_1_2 bus1=DEV_261484_1_2.1 Phases=1 kV =.240 model=1 kW=3.79598066667 pf=0.98 yearly=m3loadmult
New Load.OH_261483_1_3 bus1=DEV_261484_1_3.1 Phases=1 kV =.240 model=1 kW=3.79598066667 pf=0.98 yearly=m3loadmult
New Load.OH_261483_2_1 bus1=DEV_261484_2_1.2 Phases=1 kV =.240 model=1 kW=3.79598066667 pf=0.98 yearly=m3loadmult
New Load.OH_261483_2_2 bus1=DEV_261484_2_2.2 Phases=1 kV =.240 model=1 kW=3.79598066667 pf=0.98 yearly=m3loadmult
New Load.OH_261483_2_3 bus1=DEV_261484_2_3.2 Phases=1 kV =.240 model=1 kW=3.79598066667 pf=0.98 yearly=m3loadmult
New Load.OH_261486_1_1 bus1=DEV_261487_1_1.1 Phases=1 kV =.240 model=1 kW=1.561696 pf=0.98 yearly=m3loadmult
New Load.OH_261486_1_2 bus1=DEV_261487_1_2.1 Phases=1 kV =.240 model=1 kW=1.561696 pf=0.98 yearly=m3loadmult
New Load.OH_261486_1_3 bus1=DEV_261487_1_3.1 Phases=1 kV =.240 model=1 kW=1.561696 pf=0.98 yearly=m3loadmult
New Load.OH_261486_1_4 bus1=DEV_261487_1_4.1 Phases=1 kV =.240 model=1 kW=1.561696 pf=0.98 yearly=m3loadmult
New Load.OH_261486_2_1 bus1=DEV_261487_2_1.2 Phases=1 kV =.240 model=1 kW=1.561696 pf=0.98 yearly=m3loadmult
New Load.OH_261486_2_2 bus1=DEV_261487_2_2.2 Phases=1 kV =.240 model=1 kW=1.561696 pf=0.98 yearly=m3loadmult
New Load.OH_261486_2_3 bus1=DEV_261487_2_3.2 Phases=1 kV =.240 model=1 kW=1.561696 pf=0.98 yearly=m3loadmult
New Load.OH_261486_2_4 bus1=DEV_261487_2_4.2 Phases=1 kV =.240 model=1 kW=1.561696 pf=0.98 yearly=m3loadmult
New Load.OH_261488_1_1 bus1=DEV_261490_1_1.1 Phases=1 kV =.240 model=1 kW=0.552813 pf=0.98 yearly=m3loadmult
New Load.OH_261488_2_1 bus1=DEV_261490_2_1.3 Phases=1 kV =.240 model=1 kW=0.552813 pf=0.98 yearly=m3loadmult
New Load.OH_261535_0_1 bus1=DEV_261606_0_1.1 Phases=1 kV =.240 model=1 kW=1.735832 pf=0.98 yearly=m3loadmult
New Load.OH_261535_0_2 bus1=DEV_261606_0_2.1 Phases=1 kV =.240 model=1 kW=1.735832 pf=0.98 yearly=m3loadmult
New Load.OH_261535_0_3 bus1=DEV_261606_0_3.1 Phases=1 kV =.240 model=1 kW=1.735832 pf=0.98 yearly=m3loadmult
New Load.OH_261535_0_4 bus1=DEV_261606_0_4.1 Phases=1 kV =.240 model=1 kW=1.735832 pf=0.98 yearly=m3loadmult
New Load.OH_261535_0_5 bus1=DEV_261606_0_5.1 Phases=1 kV =.240 model=1 kW=1.735832 pf=0.98 yearly=m3loadmult
New Load.OH_261573_1_1 bus1=DEV_261608_1_1.2 Phases=1 kV =.240 model=1 kW=5.63869 pf=0.98 yearly=m3loadmult
New Load.OH_261573_1_2 bus1=DEV_261608_1_2.2 Phases=1 kV =.240 model=1 kW=5.63869 pf=0.98 yearly=m3loadmult
New Load.OH_261573_2_1 bus1=DEV_261608_2_1.3 Phases=1 kV =.240 model=1 kW=5.63869 pf=0.98 yearly=m3loadmult
New Load.OH_261573_2_2 bus1=DEV_261608_2_2.3 Phases=1 kV =.240 model=1 kW=5.63869 pf=0.98 yearly=m3loadmult
New Load.OH_261576_1_1 bus1=NODE_609861_1_1.1 Phases=1 kV =.240 model=1 kW=1.56630266667 pf=0.98 yearly=m3loadmult
New Load.OH_261576_1_2 bus1=NODE_609861_1_2.1 Phases=1 kV =.240 model=1 kW=1.56630266667 pf=0.98 yearly=m3loadmult
New Load.OH_261576_1_3 bus1=NODE_609861_1_3.1 Phases=1 kV =.240 model=1 kW=1.56630266667 pf=0.98 yearly=m3loadmult
New Load.OH_261576_2_1 bus1=NODE_609861_2_1.3 Phases=1 kV =.240 model=1 kW=1.56630266667 pf=0.98 yearly=m3loadmult
New Load.OH_261576_2_2 bus1=NODE_609861_2_2.3 Phases=1 kV =.240 model=1 kW=1.56630266667 pf=0.98 yearly=m3loadmult
New Load.OH_261576_2_3 bus1=NODE_609861_2_3.3 Phases=1 kV =.240 model=1 kW=1.56630266667 pf=0.98 yearly=m3loadmult
New Load.OH_261579_1_1 bus1=NODE_609855_1_1.1 Phases=1 kV =.240 model=1 kW=2.4047355 pf=0.98 yearly=m3loadmult
New Load.OH_261579_1_2 bus1=NODE_609855_1_2.1 Phases=1 kV =.240 model=1 kW=2.4047355 pf=0.98 yearly=m3loadmult
New Load.OH_261579_2_1 bus1=NODE_609855_2_1.3 Phases=1 kV =.240 model=1 kW=2.4047355 pf=0.98 yearly=m3loadmult
New Load.OH_261579_2_2 bus1=NODE_609855_2_2.3 Phases=1 kV =.240 model=1 kW=2.4047355 pf=0.98 yearly=m3loadmult
New Load.OH_261584_1_1 bus1=DEV_261585_1_1.1 Phases=1 kV =.240 model=1 kW=3.67620475 pf=0.98 yearly=m3loadmult
New Load.OH_261584_1_2 bus1=DEV_261585_1_2.1 Phases=1 kV =.240 model=1 kW=3.67620475 pf=0.98 yearly=m3loadmult
New Load.OH_261584_1_3 bus1=DEV_261585_1_3.1 Phases=1 kV =.240 model=1 kW=3.67620475 pf=0.98 yearly=m3loadmult
New Load.OH_261584_1_4 bus1=DEV_261585_1_4.1 Phases=1 kV =.240 model=1 kW=3.67620475 pf=0.98 yearly=m3loadmult
New Load.OH_261584_2_1 bus1=DEV_261585_2_1.3 Phases=1 kV =.240 model=1 kW=3.67620475 pf=0.98 yearly=m3loadmult
New Load.OH_261584_2_2 bus1=DEV_261585_2_2.3 Phases=1 kV =.240 model=1 kW=3.67620475 pf=0.98 yearly=m3loadmult
New Load.OH_261584_2_3 bus1=DEV_261585_2_3.3 Phases=1 kV =.240 model=1 kW=3.67620475 pf=0.98 yearly=m3loadmult
New Load.OH_261584_2_4 bus1=DEV_261585_2_4.3 Phases=1 kV =.240 model=1 kW=3.67620475 pf=0.98 yearly=m3loadmult
New Load.OH_261589_1_1 bus1=DEV_261611_1_1.2 Phases=1 kV =.240 model=1 kW=1.12405266667 pf=0.98 yearly=m3loadmult
New Load.OH_261589_1_2 bus1=DEV_261611_1_2.2 Phases=1 kV =.240 model=1 kW=1.12405266667 pf=0.98 yearly=m3loadmult
New Load.OH_261589_1_3 bus1=DEV_261611_1_3.2 Phases=1 kV =.240 model=1 kW=1.12405266667 pf=0.98 yearly=m3loadmult
New Load.OH_261589_2_1 bus1=DEV_261611_2_1.3 Phases=1 kV =.240 model=1 kW=1.12405266667 pf=0.98 yearly=m3loadmult
New Load.OH_261589_2_2 bus1=DEV_261611_2_2.3 Phases=1 kV =.240 model=1 kW=1.12405266667 pf=0.98 yearly=m3loadmult
New Load.OH_261589_2_3 bus1=DEV_261611_2_3.3 Phases=1 kV =.240 model=1 kW=1.12405266667 pf=0.98 yearly=m3loadmult
New Load.OH_261592_1_1 bus1=DEV_261610_1_1.1 Phases=1 kV =.240 model=1 kW=2.616647 pf=0.98 yearly=m3loadmult
New Load.OH_261592_1_2 bus1=DEV_261610_1_2.1 Phases=1 kV =.240 model=1 kW=2.616647 pf=0.98 yearly=m3loadmult
New Load.OH_261592_1_3 bus1=DEV_261610_1_3.1 Phases=1 kV =.240 model=1 kW=2.616647 pf=0.98 yearly=m3loadmult
New Load.OH_261592_2_1 bus1=DEV_261610_2_1.3 Phases=1 kV =.240 model=1 kW=2.616647 pf=0.98 yearly=m3loadmult
New Load.OH_261592_2_2 bus1=DEV_261610_2_2.3 Phases=1 kV =.240 model=1 kW=2.616647 pf=0.98 yearly=m3loadmult
New Load.OH_261592_2_3 bus1=DEV_261610_2_3.3 Phases=1 kV =.240 model=1 kW=2.616647 pf=0.98 yearly=m3loadmult
New Load.OH_261596_1_1 bus1=DEV_261619_1_1.1 Phases=1 kV =.240 model=1 kW=7.076003 pf=0.98 yearly=m3loadmult
New Load.OH_261596_2_1 bus1=DEV_261619_2_1.3 Phases=1 kV =.240 model=1 kW=7.076003 pf=0.98 yearly=m3loadmult
New Load.OH_261604_1_1 bus1=DEV_261599_1_1.1 Phases=1 kV =.240 model=1 kW=2.30799325 pf=0.98 yearly=m3loadmult
New Load.OH_261604_1_2 bus1=DEV_261599_1_2.1 Phases=1 kV =.240 model=1 kW=2.30799325 pf=0.98 yearly=m3loadmult
New Load.OH_261604_1_3 bus1=DEV_261599_1_3.1 Phases=1 kV =.240 model=1 kW=2.30799325 pf=0.98 yearly=m3loadmult
New Load.OH_261604_1_4 bus1=DEV_261599_1_4.1 Phases=1 kV =.240 model=1 kW=2.30799325 pf=0.98 yearly=m3loadmult
New Load.OH_261604_2_1 bus1=DEV_261599_2_1.3 Phases=1 kV =.240 model=1 kW=2.30799325 pf=0.98 yearly=m3loadmult
New Load.OH_261604_2_2 bus1=DEV_261599_2_2.3 Phases=1 kV =.240 model=1 kW=2.30799325 pf=0.98 yearly=m3loadmult
New Load.OH_261604_2_3 bus1=DEV_261599_2_3.3 Phases=1 kV =.240 model=1 kW=2.30799325 pf=0.98 yearly=m3loadmult
New Load.OH_261604_2_4 bus1=DEV_261599_2_4.3 Phases=1 kV =.240 model=1 kW=2.30799325 pf=0.98 yearly=m3loadmult
New Load.OH_261663_0_1 bus1=DEV_261702_0_1.1 Phases=1 kV =.240 model=1 kW=2.57057916667 pf=0.98 yearly=m3loadmult
New Load.OH_261663_0_2 bus1=DEV_261702_0_2.1 Phases=1 kV =.240 model=1 kW=2.57057916667 pf=0.98 yearly=m3loadmult
New Load.OH_261663_0_3 bus1=DEV_261702_0_3.1 Phases=1 kV =.240 model=1 kW=2.57057916667 pf=0.98 yearly=m3loadmult
New Load.OH_261663_0_4 bus1=DEV_261702_0_4.1 Phases=1 kV =.240 model=1 kW=2.57057916667 pf=0.98 yearly=m3loadmult
New Load.OH_261663_0_5 bus1=DEV_261702_0_5.1 Phases=1 kV =.240 model=1 kW=2.57057916667 pf=0.98 yearly=m3loadmult
New Load.OH_261663_0_6 bus1=DEV_261702_0_6.1 Phases=1 kV =.240 model=1 kW=2.57057916667 pf=0.98 yearly=m3loadmult
New Load.OH_261664_0_1 bus1=DEV_261701_0_1.2 Phases=1 kV =.240 model=1 kW=0.829219 pf=0.98 yearly=m3loadmult
New Load.OH_261664_0_2 bus1=DEV_261701_0_2.2 Phases=1 kV =.240 model=1 kW=0.829219 pf=0.98 yearly=m3loadmult
New Load.OH_261666_0_1 bus1=NODE_11021904_0_1.3 Phases=1 kV =.240 model=1 kW=3.02467542857 pf=0.98 yearly=m3loadmult
New Load.OH_261666_0_2 bus1=NODE_11021904_0_2.3 Phases=1 kV =.240 model=1 kW=3.02467542857 pf=0.98 yearly=m3loadmult
New Load.OH_261666_0_3 bus1=NODE_11021904_0_3.3 Phases=1 kV =.240 model=1 kW=3.02467542857 pf=0.98 yearly=m3loadmult
New Load.OH_261666_0_4 bus1=NODE_11021904_0_4.3 Phases=1 kV =.240 model=1 kW=3.02467542857 pf=0.98 yearly=m3loadmult
New Load.OH_261666_0_5 bus1=NODE_11021904_0_5.3 Phases=1 kV =.240 model=1 kW=3.02467542857 pf=0.98 yearly=m3loadmult
New Load.OH_261666_0_6 bus1=NODE_11021904_0_6.3 Phases=1 kV =.240 model=1 kW=3.02467542857 pf=0.98 yearly=m3loadmult
New Load.OH_261666_0_7 bus1=NODE_11021904_0_7.3 Phases=1 kV =.240 model=1 kW=3.02467542857 pf=0.98 yearly=m3loadmult
New Load.OH_261691_1_1 bus1=DEV_261698_1_1.2 Phases=1 kV =.240 model=1 kW=0.3593285 pf=0.98 yearly=m3loadmult
New Load.OH_261691_1_2 bus1=DEV_261698_1_2.2 Phases=1 kV =.240 model=1 kW=0.3593285 pf=0.98 yearly=m3loadmult
New Load.OH_261691_2_1 bus1=DEV_261698_2_1.3 Phases=1 kV =.240 model=1 kW=0.3593285 pf=0.98 yearly=m3loadmult
New Load.OH_261691_2_2 bus1=DEV_261698_2_2.3 Phases=1 kV =.240 model=1 kW=0.3593285 pf=0.98 yearly=m3loadmult
New Load.OH_261709_1_1 bus1=NODE_619119_1_1.1 Phases=1 kV =.240 model=1 kW=1.437313 pf=0.98 yearly=m3loadmult
New Load.OH_261709_2_1 bus1=NODE_619119_2_1.2 Phases=1 kV =.240 model=1 kW=1.437313 pf=0.98 yearly=m3loadmult
New Load.OH_261747_0_1 bus1=DEV_261736_0_1.1 Phases=1 kV =.240 model=1 kW=1.907204 pf=0.98 yearly=m3loadmult
New Load.OH_261747_0_2 bus1=DEV_261736_0_2.1 Phases=1 kV =.240 model=1 kW=1.907204 pf=0.98 yearly=m3loadmult
New Load.OH_261847_0_1 bus1=DEV_261851_0_1.1 Phases=1 kV =.240 model=1 kW=2.3834754 pf=0.98 yearly=m3loadmult
New Load.OH_261847_0_2 bus1=DEV_261851_0_2.1 Phases=1 kV =.240 model=1 kW=2.3834754 pf=0.98 yearly=m3loadmult
New Load.OH_261847_0_3 bus1=DEV_261851_0_3.1 Phases=1 kV =.240 model=1 kW=2.3834754 pf=0.98 yearly=m3loadmult
New Load.OH_261847_0_4 bus1=DEV_261851_0_4.1 Phases=1 kV =.240 model=1 kW=2.3834754 pf=0.98 yearly=m3loadmult
New Load.OH_261847_0_5 bus1=DEV_261851_0_5.1 Phases=1 kV =.240 model=1 kW=2.3834754 pf=0.98 yearly=m3loadmult
New Load.OH_262646_1_1 bus1=NODE_11021965_1_1.2 Phases=1 kV =.240 model=1 kW=1.865743 pf=0.98 yearly=m3loadmult
New Load.OH_262646_1_2 bus1=NODE_11021965_1_2.2 Phases=1 kV =.240 model=1 kW=1.865743 pf=0.98 yearly=m3loadmult
New Load.OH_262646_1_3 bus1=NODE_11021965_1_3.2 Phases=1 kV =.240 model=1 kW=1.865743 pf=0.98 yearly=m3loadmult
New Load.OH_262646_1_4 bus1=NODE_11021965_1_4.2 Phases=1 kV =.240 model=1 kW=1.865743 pf=0.98 yearly=m3loadmult
New Load.OH_262646_2_1 bus1=NODE_11021965_2_1.3 Phases=1 kV =.240 model=1 kW=1.865743 pf=0.98 yearly=m3loadmult
New Load.OH_262646_2_2 bus1=NODE_11021965_2_2.3 Phases=1 kV =.240 model=1 kW=1.865743 pf=0.98 yearly=m3loadmult
New Load.OH_262646_2_3 bus1=NODE_11021965_2_3.3 Phases=1 kV =.240 model=1 kW=1.865743 pf=0.98 yearly=m3loadmult
New Load.OH_262646_2_4 bus1=NODE_11021965_2_4.3 Phases=1 kV =.240 model=1 kW=1.865743 pf=0.98 yearly=m3loadmult
New Load.OH_262648_1_1 bus1=NODE_619037_1_1.1 Phases=1 kV =.240 model=1 kW=3.48272 pf=0.98 yearly=m3loadmult
New Load.OH_262648_2_1 bus1=NODE_619037_2_1.3 Phases=1 kV =.240 model=1 kW=3.48272 pf=0.98 yearly=m3loadmult
New Load.OH_262654_1_1 bus1=DEV_262689_1_1.1 Phases=1 kV =.240 model=1 kW=2.819345 pf=0.98 yearly=m3loadmult
New Load.OH_262654_2_1 bus1=DEV_262689_2_1.3 Phases=1 kV =.240 model=1 kW=2.819345 pf=0.98 yearly=m3loadmult
New Load.OH_262655_1_1 bus1=DEV_262688_1_1.1 Phases=1 kV =.240 model=1 kW=2.37709466667 pf=0.98 yearly=m3loadmult
New Load.OH_262655_1_2 bus1=DEV_262688_1_2.1 Phases=1 kV =.240 model=1 kW=2.37709466667 pf=0.98 yearly=m3loadmult
New Load.OH_262655_1_3 bus1=DEV_262688_1_3.1 Phases=1 kV =.240 model=1 kW=2.37709466667 pf=0.98 yearly=m3loadmult
New Load.OH_262655_2_1 bus1=DEV_262688_2_1.3 Phases=1 kV =.240 model=1 kW=2.37709466667 pf=0.98 yearly=m3loadmult
New Load.OH_262655_2_2 bus1=DEV_262688_2_2.3 Phases=1 kV =.240 model=1 kW=2.37709466667 pf=0.98 yearly=m3loadmult
New Load.OH_262655_2_3 bus1=DEV_262688_2_3.3 Phases=1 kV =.240 model=1 kW=2.37709466667 pf=0.98 yearly=m3loadmult
New Load.OH_262657_1_1 bus1=DEV_51117467_1_1.1 Phases=1 kV =.240 model=1 kW=3.593283 pf=0.98 yearly=m3loadmult
New Load.OH_262657_2_1 bus1=DEV_51117467_2_1.3 Phases=1 kV =.240 model=1 kW=3.593283 pf=0.98 yearly=m3loadmult
New Load.OH_262662_1_1 bus1=NODE_11021961_1_1.1 Phases=1 kV =.240 model=1 kW=3.04047 pf=0.98 yearly=m3loadmult
New Load.OH_262662_2_1 bus1=NODE_11021961_2_1.3 Phases=1 kV =.240 model=1 kW=3.04047 pf=0.98 yearly=m3loadmult
New Load.OH_262673_0_1 bus1=DEV_51079464_0_1.3 Phases=1 kV =.240 model=1 kW=3.02664975 pf=0.98 yearly=m3loadmult
New Load.OH_262673_0_2 bus1=DEV_51079464_0_2.3 Phases=1 kV =.240 model=1 kW=3.02664975 pf=0.98 yearly=m3loadmult
New Load.OH_262673_0_3 bus1=DEV_51079464_0_3.3 Phases=1 kV =.240 model=1 kW=3.02664975 pf=0.98 yearly=m3loadmult
New Load.OH_262673_0_4 bus1=DEV_51079464_0_4.3 Phases=1 kV =.240 model=1 kW=3.02664975 pf=0.98 yearly=m3loadmult
New Load.OH_262752_0_1 bus1=DEV_51071988_0_1.2 Phases=1 kV =.240 model=1 kW=1.326751 pf=0.98 yearly=m3loadmult
New Load.OH_262864_1_1 bus1=NODE_11021955_1_1.1 Phases=1 kV =.240 model=1 kW=4.864752 pf=0.98 yearly=m3loadmult
New Load.OH_262864_2_1 bus1=NODE_11021955_2_1.3 Phases=1 kV =.240 model=1 kW=4.864752 pf=0.98 yearly=m3loadmult
New Load.OH_262868_0_1 bus1=NODE_11021952_0_1.1 Phases=1 kV =.240 model=1 kW=4.201377 pf=0.98 yearly=m3loadmult
New Load.OH_262868_0_2 bus1=NODE_11021952_0_2.1 Phases=1 kV =.240 model=1 kW=4.201377 pf=0.98 yearly=m3loadmult
New Load.OH_262870_1_1 bus1=NODE_618828_1_1.1 Phases=1 kV =.240 model=1 kW=2.211251 pf=0.98 yearly=m3loadmult
New Load.OH_262870_2_1 bus1=NODE_618828_2_1.2 Phases=1 kV =.240 model=1 kW=2.211251 pf=0.98 yearly=m3loadmult
New Load.OH_262873_1_1 bus1=NODE_618864_1_1.1 Phases=1 kV =.240 model=1 kW=2.1836105 pf=0.98 yearly=m3loadmult
New Load.OH_262873_1_2 bus1=NODE_618864_1_2.1 Phases=1 kV =.240 model=1 kW=2.1836105 pf=0.98 yearly=m3loadmult
New Load.OH_262873_2_1 bus1=NODE_618864_2_1.3 Phases=1 kV =.240 model=1 kW=2.1836105 pf=0.98 yearly=m3loadmult
New Load.OH_262873_2_2 bus1=NODE_618864_2_2.3 Phases=1 kV =.240 model=1 kW=2.1836105 pf=0.98 yearly=m3loadmult
New Load.OH_262876_1_1 bus1=DEV_262877_1_1.1 Phases=1 kV =.240 model=1 kW=1.532081 pf=0.98 yearly=m3loadmult
New Load.OH_262876_1_2 bus1=DEV_262877_1_2.1 Phases=1 kV =.240 model=1 kW=1.532081 pf=0.98 yearly=m3loadmult
New Load.OH_262876_1_3 bus1=DEV_262877_1_3.1 Phases=1 kV =.240 model=1 kW=1.532081 pf=0.98 yearly=m3loadmult
New Load.OH_262876_1_4 bus1=DEV_262877_1_4.1 Phases=1 kV =.240 model=1 kW=1.532081 pf=0.98 yearly=m3loadmult
New Load.OH_262876_1_5 bus1=DEV_262877_1_5.1 Phases=1 kV =.240 model=1 kW=1.532081 pf=0.98 yearly=m3loadmult
New Load.OH_262876_1_6 bus1=DEV_262877_1_6.1 Phases=1 kV =.240 model=1 kW=1.532081 pf=0.98 yearly=m3loadmult
New Load.OH_262876_1_7 bus1=DEV_262877_1_7.1 Phases=1 kV =.240 model=1 kW=1.532081 pf=0.98 yearly=m3loadmult
New Load.OH_262876_2_1 bus1=DEV_262877_2_1.3 Phases=1 kV =.240 model=1 kW=1.532081 pf=0.98 yearly=m3loadmult
New Load.OH_262876_2_2 bus1=DEV_262877_2_2.3 Phases=1 kV =.240 model=1 kW=1.532081 pf=0.98 yearly=m3loadmult
New Load.OH_262876_2_3 bus1=DEV_262877_2_3.3 Phases=1 kV =.240 model=1 kW=1.532081 pf=0.98 yearly=m3loadmult
New Load.OH_262876_2_4 bus1=DEV_262877_2_4.3 Phases=1 kV =.240 model=1 kW=1.532081 pf=0.98 yearly=m3loadmult
New Load.OH_262876_2_5 bus1=DEV_262877_2_5.3 Phases=1 kV =.240 model=1 kW=1.532081 pf=0.98 yearly=m3loadmult
New Load.OH_262876_2_6 bus1=DEV_262877_2_6.3 Phases=1 kV =.240 model=1 kW=1.532081 pf=0.98 yearly=m3loadmult
New Load.OH_262876_2_7 bus1=DEV_262877_2_7.3 Phases=1 kV =.240 model=1 kW=1.532081 pf=0.98 yearly=m3loadmult
New Load.OH_262881_1_1 bus1=DEV_262883_1_1.1 Phases=1 kV =.240 model=1 kW=2.229678 pf=0.98 yearly=m3loadmult
New Load.OH_262881_1_2 bus1=DEV_262883_1_2.1 Phases=1 kV =.240 model=1 kW=2.229678 pf=0.98 yearly=m3loadmult
New Load.OH_262881_1_3 bus1=DEV_262883_1_3.1 Phases=1 kV =.240 model=1 kW=2.229678 pf=0.98 yearly=m3loadmult
New Load.OH_262881_2_1 bus1=DEV_262883_2_1.2 Phases=1 kV =.240 model=1 kW=2.229678 pf=0.98 yearly=m3loadmult
New Load.OH_262881_2_2 bus1=DEV_262883_2_2.2 Phases=1 kV =.240 model=1 kW=2.229678 pf=0.98 yearly=m3loadmult
New Load.OH_262881_2_3 bus1=DEV_262883_2_3.2 Phases=1 kV =.240 model=1 kW=2.229678 pf=0.98 yearly=m3loadmult
New Load.OH_262888_0_1 bus1=DEV_262891_0_1.3 Phases=1 kV =.240 model=1 kW=1.71371933333 pf=0.98 yearly=m3loadmult
New Load.OH_262888_0_2 bus1=DEV_262891_0_2.3 Phases=1 kV =.240 model=1 kW=1.71371933333 pf=0.98 yearly=m3loadmult
New Load.OH_262888_0_3 bus1=DEV_262891_0_3.3 Phases=1 kV =.240 model=1 kW=1.71371933333 pf=0.98 yearly=m3loadmult
New Load.OH_262978_1_1 bus1=DEV_263023_1_1.1 Phases=1 kV =.240 model=1 kW=0.960512125 pf=0.98 yearly=m3loadmult
New Load.OH_262978_1_2 bus1=DEV_263023_1_2.1 Phases=1 kV =.240 model=1 kW=0.960512125 pf=0.98 yearly=m3loadmult
New Load.OH_262978_1_3 bus1=DEV_263023_1_3.1 Phases=1 kV =.240 model=1 kW=0.960512125 pf=0.98 yearly=m3loadmult
New Load.OH_262978_1_4 bus1=DEV_263023_1_4.1 Phases=1 kV =.240 model=1 kW=0.960512125 pf=0.98 yearly=m3loadmult
New Load.OH_262978_1_5 bus1=DEV_263023_1_5.1 Phases=1 kV =.240 model=1 kW=0.960512125 pf=0.98 yearly=m3loadmult
New Load.OH_262978_1_6 bus1=DEV_263023_1_6.1 Phases=1 kV =.240 model=1 kW=0.960512125 pf=0.98 yearly=m3loadmult
New Load.OH_262978_1_7 bus1=DEV_263023_1_7.1 Phases=1 kV =.240 model=1 kW=0.960512125 pf=0.98 yearly=m3loadmult
New Load.OH_262978_1_8 bus1=DEV_263023_1_8.1 Phases=1 kV =.240 model=1 kW=0.960512125 pf=0.98 yearly=m3loadmult
New Load.OH_262978_2_1 bus1=DEV_263023_2_1.3 Phases=1 kV =.240 model=1 kW=0.960512125 pf=0.98 yearly=m3loadmult
New Load.OH_262978_2_2 bus1=DEV_263023_2_2.3 Phases=1 kV =.240 model=1 kW=0.960512125 pf=0.98 yearly=m3loadmult
New Load.OH_262978_2_3 bus1=DEV_263023_2_3.3 Phases=1 kV =.240 model=1 kW=0.960512125 pf=0.98 yearly=m3loadmult
New Load.OH_262978_2_4 bus1=DEV_263023_2_4.3 Phases=1 kV =.240 model=1 kW=0.960512125 pf=0.98 yearly=m3loadmult
New Load.OH_262978_2_5 bus1=DEV_263023_2_5.3 Phases=1 kV =.240 model=1 kW=0.960512125 pf=0.98 yearly=m3loadmult
New Load.OH_262978_2_6 bus1=DEV_263023_2_6.3 Phases=1 kV =.240 model=1 kW=0.960512125 pf=0.98 yearly=m3loadmult
New Load.OH_262978_2_7 bus1=DEV_263023_2_7.3 Phases=1 kV =.240 model=1 kW=0.960512125 pf=0.98 yearly=m3loadmult
New Load.OH_262978_2_8 bus1=DEV_263023_2_8.3 Phases=1 kV =.240 model=1 kW=0.960512125 pf=0.98 yearly=m3loadmult
New Load.OH_262979_1_1 bus1=DEV_263022_1_1.2 Phases=1 kV =.240 model=1 kW=0.8955566 pf=0.98 yearly=m3loadmult
New Load.OH_262979_1_2 bus1=DEV_263022_1_2.2 Phases=1 kV =.240 model=1 kW=0.8955566 pf=0.98 yearly=m3loadmult
New Load.OH_262979_1_3 bus1=DEV_263022_1_3.2 Phases=1 kV =.240 model=1 kW=0.8955566 pf=0.98 yearly=m3loadmult
New Load.OH_262979_1_4 bus1=DEV_263022_1_4.2 Phases=1 kV =.240 model=1 kW=0.8955566 pf=0.98 yearly=m3loadmult
New Load.OH_262979_1_5 bus1=DEV_263022_1_5.2 Phases=1 kV =.240 model=1 kW=0.8955566 pf=0.98 yearly=m3loadmult
New Load.OH_262979_2_1 bus1=DEV_263022_2_1.3 Phases=1 kV =.240 model=1 kW=0.8955566 pf=0.98 yearly=m3loadmult
New Load.OH_262979_2_2 bus1=DEV_263022_2_2.3 Phases=1 kV =.240 model=1 kW=0.8955566 pf=0.98 yearly=m3loadmult
New Load.OH_262979_2_3 bus1=DEV_263022_2_3.3 Phases=1 kV =.240 model=1 kW=0.8955566 pf=0.98 yearly=m3loadmult
New Load.OH_262979_2_4 bus1=DEV_263022_2_4.3 Phases=1 kV =.240 model=1 kW=0.8955566 pf=0.98 yearly=m3loadmult
New Load.OH_262979_2_5 bus1=DEV_263022_2_5.3 Phases=1 kV =.240 model=1 kW=0.8955566 pf=0.98 yearly=m3loadmult
New Load.OH_262981_1_1 bus1=NODE_627956_1_1.1 Phases=1 kV =.240 model=1 kW=4.947674 pf=0.98 yearly=m3loadmult
New Load.OH_262981_1_2 bus1=NODE_627956_1_2.1 Phases=1 kV =.240 model=1 kW=4.947674 pf=0.98 yearly=m3loadmult
New Load.OH_262981_2_1 bus1=NODE_627956_2_1.3 Phases=1 kV =.240 model=1 kW=4.947674 pf=0.98 yearly=m3loadmult
New Load.OH_262981_2_2 bus1=NODE_627956_2_2.3 Phases=1 kV =.240 model=1 kW=4.947674 pf=0.98 yearly=m3loadmult
New Load.OH_262983_1_1 bus1=DEV_51163410_1_1.1 Phases=1 kV =.240 model=1 kW=1.54787571429 pf=0.98 yearly=m3loadmult
New Load.OH_262983_1_2 bus1=DEV_51163410_1_2.1 Phases=1 kV =.240 model=1 kW=1.54787571429 pf=0.98 yearly=m3loadmult
New Load.OH_262983_1_3 bus1=DEV_51163410_1_3.1 Phases=1 kV =.240 model=1 kW=1.54787571429 pf=0.98 yearly=m3loadmult
New Load.OH_262983_1_4 bus1=DEV_51163410_1_4.1 Phases=1 kV =.240 model=1 kW=1.54787571429 pf=0.98 yearly=m3loadmult
New Load.OH_262983_1_5 bus1=DEV_51163410_1_5.1 Phases=1 kV =.240 model=1 kW=1.54787571429 pf=0.98 yearly=m3loadmult
New Load.OH_262983_1_6 bus1=DEV_51163410_1_6.1 Phases=1 kV =.240 model=1 kW=1.54787571429 pf=0.98 yearly=m3loadmult
New Load.OH_262983_1_7 bus1=DEV_51163410_1_7.1 Phases=1 kV =.240 model=1 kW=1.54787571429 pf=0.98 yearly=m3loadmult
New Load.OH_262983_2_1 bus1=DEV_51163410_2_1.2 Phases=1 kV =.240 model=1 kW=1.54787571429 pf=0.98 yearly=m3loadmult
New Load.OH_262983_2_2 bus1=DEV_51163410_2_2.2 Phases=1 kV =.240 model=1 kW=1.54787571429 pf=0.98 yearly=m3loadmult
New Load.OH_262983_2_3 bus1=DEV_51163410_2_3.2 Phases=1 kV =.240 model=1 kW=1.54787571429 pf=0.98 yearly=m3loadmult
New Load.OH_262983_2_4 bus1=DEV_51163410_2_4.2 Phases=1 kV =.240 model=1 kW=1.54787571429 pf=0.98 yearly=m3loadmult
New Load.OH_262983_2_5 bus1=DEV_51163410_2_5.2 Phases=1 kV =.240 model=1 kW=1.54787571429 pf=0.98 yearly=m3loadmult
New Load.OH_262983_2_6 bus1=DEV_51163410_2_6.2 Phases=1 kV =.240 model=1 kW=1.54787571429 pf=0.98 yearly=m3loadmult
New Load.OH_262983_2_7 bus1=DEV_51163410_2_7.2 Phases=1 kV =.240 model=1 kW=1.54787571429 pf=0.98 yearly=m3loadmult
New Load.OH_262987_1_1 bus1=NODE_31208075_1_1.1 Phases=1 kV =.240 model=1 kW=1.60315685714 pf=0.98 yearly=m3loadmult
New Load.OH_262987_1_2 bus1=NODE_31208075_1_2.1 Phases=1 kV =.240 model=1 kW=1.60315685714 pf=0.98 yearly=m3loadmult
New Load.OH_262987_1_3 bus1=NODE_31208075_1_3.1 Phases=1 kV =.240 model=1 kW=1.60315685714 pf=0.98 yearly=m3loadmult
New Load.OH_262987_1_4 bus1=NODE_31208075_1_4.1 Phases=1 kV =.240 model=1 kW=1.60315685714 pf=0.98 yearly=m3loadmult
New Load.OH_262987_1_5 bus1=NODE_31208075_1_5.1 Phases=1 kV =.240 model=1 kW=1.60315685714 pf=0.98 yearly=m3loadmult
New Load.OH_262987_1_6 bus1=NODE_31208075_1_6.1 Phases=1 kV =.240 model=1 kW=1.60315685714 pf=0.98 yearly=m3loadmult
New Load.OH_262987_1_7 bus1=NODE_31208075_1_7.1 Phases=1 kV =.240 model=1 kW=1.60315685714 pf=0.98 yearly=m3loadmult
New Load.OH_262987_2_1 bus1=NODE_31208075_2_1.3 Phases=1 kV =.240 model=1 kW=1.60315685714 pf=0.98 yearly=m3loadmult
New Load.OH_262987_2_2 bus1=NODE_31208075_2_2.3 Phases=1 kV =.240 model=1 kW=1.60315685714 pf=0.98 yearly=m3loadmult
New Load.OH_262987_2_3 bus1=NODE_31208075_2_3.3 Phases=1 kV =.240 model=1 kW=1.60315685714 pf=0.98 yearly=m3loadmult
New Load.OH_262987_2_4 bus1=NODE_31208075_2_4.3 Phases=1 kV =.240 model=1 kW=1.60315685714 pf=0.98 yearly=m3loadmult
New Load.OH_262987_2_5 bus1=NODE_31208075_2_5.3 Phases=1 kV =.240 model=1 kW=1.60315685714 pf=0.98 yearly=m3loadmult
New Load.OH_262987_2_6 bus1=NODE_31208075_2_6.3 Phases=1 kV =.240 model=1 kW=1.60315685714 pf=0.98 yearly=m3loadmult
New Load.OH_262987_2_7 bus1=NODE_31208075_2_7.3 Phases=1 kV =.240 model=1 kW=1.60315685714 pf=0.98 yearly=m3loadmult
New Load.OH_262992_1_1 bus1=DEV_262993_1_1.1 Phases=1 kV =.240 model=1 kW=3.206314 pf=0.98 yearly=m3loadmult
New Load.OH_262992_2_1 bus1=DEV_262993_2_1.3 Phases=1 kV =.240 model=1 kW=3.206314 pf=0.98 yearly=m3loadmult
New Load.OH_262998_1_1 bus1=DEV_262999_1_1.1 Phases=1 kV =.240 model=1 kW=2.515298 pf=0.98 yearly=m3loadmult
New Load.OH_262998_1_2 bus1=DEV_262999_1_2.1 Phases=1 kV =.240 model=1 kW=2.515298 pf=0.98 yearly=m3loadmult
New Load.OH_262998_1_3 bus1=DEV_262999_1_3.1 Phases=1 kV =.240 model=1 kW=2.515298 pf=0.98 yearly=m3loadmult
New Load.OH_262998_1_4 bus1=DEV_262999_1_4.1 Phases=1 kV =.240 model=1 kW=2.515298 pf=0.98 yearly=m3loadmult
New Load.OH_262998_2_1 bus1=DEV_262999_2_1.3 Phases=1 kV =.240 model=1 kW=2.515298 pf=0.98 yearly=m3loadmult
New Load.OH_262998_2_2 bus1=DEV_262999_2_2.3 Phases=1 kV =.240 model=1 kW=2.515298 pf=0.98 yearly=m3loadmult
New Load.OH_262998_2_3 bus1=DEV_262999_2_3.3 Phases=1 kV =.240 model=1 kW=2.515298 pf=0.98 yearly=m3loadmult
New Load.OH_262998_2_4 bus1=DEV_262999_2_4.3 Phases=1 kV =.240 model=1 kW=2.515298 pf=0.98 yearly=m3loadmult
New Load.OH_263000_1_1 bus1=DEV_263008_1_1.1 Phases=1 kV =.240 model=1 kW=1.437313 pf=0.98 yearly=m3loadmult
New Load.OH_263000_1_2 bus1=DEV_263008_1_2.1 Phases=1 kV =.240 model=1 kW=1.437313 pf=0.98 yearly=m3loadmult
New Load.OH_263000_1_3 bus1=DEV_263008_1_3.1 Phases=1 kV =.240 model=1 kW=1.437313 pf=0.98 yearly=m3loadmult
New Load.OH_263000_2_1 bus1=DEV_263008_2_1.3 Phases=1 kV =.240 model=1 kW=1.437313 pf=0.98 yearly=m3loadmult
New Load.OH_263000_2_2 bus1=DEV_263008_2_2.3 Phases=1 kV =.240 model=1 kW=1.437313 pf=0.98 yearly=m3loadmult
New Load.OH_263000_2_3 bus1=DEV_263008_2_3.3 Phases=1 kV =.240 model=1 kW=1.437313 pf=0.98 yearly=m3loadmult
New Load.OH_263011_0_1 bus1=DEV_51081604_0_1.1 Phases=1 kV =.240 model=1 kW=2.487657 pf=0.98 yearly=m3loadmult
New Load.OH_263013_1_1 bus1=DEV_263015_1_1.1 Phases=1 kV =.240 model=1 kW=1.558932 pf=0.98 yearly=m3loadmult
New Load.OH_263013_1_2 bus1=DEV_263015_1_2.1 Phases=1 kV =.240 model=1 kW=1.558932 pf=0.98 yearly=m3loadmult
New Load.OH_263013_1_3 bus1=DEV_263015_1_3.1 Phases=1 kV =.240 model=1 kW=1.558932 pf=0.98 yearly=m3loadmult
New Load.OH_263013_1_4 bus1=DEV_263015_1_4.1 Phases=1 kV =.240 model=1 kW=1.558932 pf=0.98 yearly=m3loadmult
New Load.OH_263013_1_5 bus1=DEV_263015_1_5.1 Phases=1 kV =.240 model=1 kW=1.558932 pf=0.98 yearly=m3loadmult