New Line.l(r:p6udt3921lv-p6ulv12413) Units=km Length=0.0320317 bus1=p6udt3921lv.1.2 bus2=p6ulv12413.1.2 switch=n enabled=y phases=2 Linecode=1P_UG_AL_1/0_Brenau_2

New Line.l(r:p6udt3921lv-p6ulv12414) Units=km Length=0.0320317 bus1=p6udt3921lv.1.2 bus2=p6ulv12414.1.2 switch=n enabled=y phases=2 Linecode=1P_UG_AL_1/0_Brenau_2

New Line.l(r:p6udm13154-p6ulv12415) Units=km Length=0.00724716 bus1=p6udm13154.1.2 bus2=p6ulv12415.1.2 switch=n enabled=y phases=2 Linecode=1P_UG_AL_1/0_Brenau_2

New Line.l(r:p6udm13154-p6udt3922lv) Units=km Length=0.00949 bus1=p6udt3922lv.1.2 bus2=p6udm13154.1.2 switch=n enabled=y phases=2 Linecode=1P_UG_AL_1/0_Brenau_2

New Line.l(r:p6udm13155-p6ulv12416) Units=km Length=0.00340344 bus1=p6udm13155.1.2 bus2=p6ulv12416.1.2 switch=n enabled=y phases=2 Linecode=1P_UG_AL_1/0_Brenau_2

New Line.l(r:p6udm13155-p6udt3922lv) Units=km Length=0.00947692 bus1=p6udt3922lv.1.2 bus2=p6udm13155.1.2 switch=n enabled=y phases=2 Linecode=1P_UG_AL_1/0_Brenau_2

New Line.l(r:p6udt3923lv-p6ulv12417) Units=km Length=0.0243177 bus1=p6udt3923lv.1.2 bus2=p6ulv12417.1.2 switch=n enabled=y phases=2 Linecode=1P_UG_AL_1/0_Brenau_2

New Line.l(r:p6udm13159-p6ulv12420) Units=km Length=0.0013024600000000003 bus1=p6udm13159.1.2 bus2=p6ulv12420.1.2 switch=n enabled=y phases=2 Linecode=1P_UG_AL_1/0_Brenau_2

New Line.l(r:p6udm13160-p6ulv12421) Units=km Length=0.00122972 bus1=p6udm13160.1.2 bus2=p6ulv12421.1.2 switch=n enabled=y phases=2 Linecode=1P_UG_AL_1/0_Brenau_2

New Line.l(r:p6udm13157-p6ulv12418) Units=km Length=0.00547461 bus1=p6udm13157.1.2 bus2=p6ulv12418.1.2 switch=n enabled=y phases=2 Linecode=1P_UG_AL_1/0_Brenau_2

New Line.l(r:p6udm13158-p6ulv12419) Units=km Length=0.0125845 bus1=p6udm13158.1.2 bus2=p6ulv12419.1.2 switch=n enabled=y phases=2 Linecode=1P_UG_AL_1/0_Brenau_2

New Line.l(r:p6udm13157-p6udm13158) Units=km Length=0.0326976 bus1=p6udm13157.1.2 bus2=p6udm13158.1.2 switch=n enabled=y phases=2 Linecode=1P_UG_AL_1/0_Brenau_2

New Line.l(r:p6udm13157-p6udm13160) Units=km Length=0.0460156 bus1=p6udm13160.1.2 bus2=p6udm13157.1.2 switch=n enabled=y phases=2 Linecode=1P_UG_AL_1/0_Brenau_2

New Line.l(r:p6udm13159-p6udm13160) Units=km Length=0.0144324 bus1=p6udm13159.1.2 bus2=p6udm13160.1.2 switch=n enabled=y phases=2 Linecode=1P_UG_AL_1/0_Brenau_2

New Line.l(r:p6udm13159-p6udt3924lv) Units=km Length=0.00758373 bus1=p6udt3924lv.1.2 bus2=p6udm13159.1.2 switch=n enabled=y phases=2 Linecode=1P_UG_AL_1/0_Brenau_2

New Line.l(r:p6udm13161-p6ulv12422) Units=km Length=0.0100794 bus1=p6udm13161.1.2 bus2=p6ulv12422.1.2 switch=n enabled=y phases=2 Linecode=1P_UG_AL_1/0_Brenau_2

New Line.l(r:p6udm13161-p6udt3925lv) Units=km Length=0.00795512 bus1=p6udt3925lv.1.2 bus2=p6udm13161.1.2 switch=n enabled=y phases=2 Linecode=1P_UG_AL_1/0_Brenau_2

New Line.l(r:p6udm13162-p6ulv12423) Units=km Length=0.00655256 bus1=p6udm13162.1.2 bus2=p6ulv12423.1.2 switch=n enabled=y phases=2 Linecode=1P_UG_AL_1/0_Brenau_2

New Line.l(r:p6udm13162-p6udt3925lv) Units=km Length=0.00795512 bus1=p6udt3925lv.1.2 bus2=p6udm13162.1.2 switch=n enabled=y phases=2 Linecode=1P_UG_AL_1/0_Brenau_2

New Line.l(r:p6udt3926lv-p6ulv12424) Units=km Length=0.0608795 bus1=p6udt3926lv.1.2 bus2=p6ulv12424.1.2 switch=n enabled=y phases=2 Linecode=1P_UG_AL_1/0_Brenau_2

New Line.l(r:p6udt3927lv-p6ulv12425) Units=km Length=0.06527120000000002 bus1=p6udt3927lv.1.2 bus2=p6ulv12425.1.2 switch=n enabled=y phases=2 Linecode=1P_UG_AL_1/0_Brenau_2

New Line.l(r:p6udm13165-p6ulv12426) Units=km Length=0.0214139 bus1=p6udm13165.1.2 bus2=p6ulv12426.1.2 switch=n enabled=y phases=2 Linecode=1P_UG_AL_1/0_Brenau_2

New Line.l(r:p6udm13165-p6udt3927lv) Units=km Length=0.0087365 bus1=p6udt3927lv.1.2 bus2=p6udm13165.1.2 switch=n enabled=y phases=2 Linecode=1P_UG_AL_1/0_Brenau_2

New Line.l(r:p6udt3928lv-p6ulv12427) Units=km Length=0.0799601 bus1=p6udt3928lv.1.2 bus2=p6ulv12427.1.2 switch=n enabled=y phases=2 Linecode=1P_UG_AL_1/0_Brenau_2

New Line.l(r:p6udt3929lv-p6ulv12428) Units=km Length=0.0683483 bus1=p6udt3929lv.1.2 bus2=p6ulv12428.1.2 switch=n enabled=y phases=2 Linecode=1P_UG_AL_1/0_Brenau_2

New Line.l(r:p6udm13168-p6ulv12429) Units=km Length=0.03390300000000001 bus1=p6udm13168.1.2 bus2=p6ulv12429.1.2 switch=n enabled=y phases=2 Linecode=1P_UG_AL_1/0_Brenau_2

New Line.l(r:p6udm13170-p6ulv12431) Units=km Length=0.0333709 bus1=p6udm13170.1.2 bus2=p6ulv12431.1.2 switch=n enabled=y phases=2 Linecode=1P_UG_AL_1/0_Brenau_2

New Line.l(r:p6udm13168-p6udm13170) Units=km Length=0.0283343 bus1=p6udm13168.1.2 bus2=p6udm13170.1.2 switch=n enabled=y phases=2 Linecode=1P_UG_AL_1/0_Brenau_2

New Line.l(r:p6udm13168-p6udt3930lv) Units=km Length=0.00965945 bus1=p6udt3930lv.1.2 bus2=p6udm13168.1.2 switch=n enabled=y phases=2 Linecode=1P_UG_AL_1/0_Brenau_2

New Line.l(r:p6udm13169-p6ulv12430) Units=km Length=0.021278 bus1=p6udm13169.1.2 bus2=p6ulv12430.1.2 switch=n enabled=y phases=2 Linecode=1P_OH_AL_2/0_Rucina_2

New Line.l(r:p6udm13169-p6udt3930lv) Units=km Length=0.0324149 bus1=p6udt3930lv.1.2 bus2=p6udm13169.1.2 switch=n enabled=y phases=2 Linecode=1P_OH_AL_4/0_Zuzara_2

New Line.l(r:p6udt3931lv-p6ulv12432) Units=km Length=0.0279614 bus1=p6udt3931lv.1.2 bus2=p6ulv12432.1.2 switch=n enabled=y phases=2 Linecode=1P_UG_AL_1/0_Brenau_2

New Line.l(r:p6udt3931lv-p6ulv12433) Units=km Length=0.00728569 bus1=p6udt3931lv.1.2 bus2=p6ulv12433.1.2 switch=n enabled=y phases=2 Linecode=1P_UG_AL_1/0_Brenau_2

New Line.l(r:p6udt3931lv-p6ulv12434) Units=km Length=0.0308931 bus1=p6udt3931lv.1.2 bus2=p6ulv12434.1.2 switch=n enabled=y phases=2 Linecode=1P_UG_AL_1/0_Brenau_2

New Line.l(r:p6udt3932lv-p6ulv12435) Units=km Length=0.07633850000000002 bus1=p6udt3932lv.1.2 bus2=p6ulv12435.1.2 switch=n enabled=y phases=2 Linecode=1P_OH_AL_4/0_Zuzara_2

New Line.l(r:p6udt3933lv-p6ulv12436) Units=km Length=0.0841709 bus1=p6udt3933lv.1.2 bus2=p6ulv12436.1.2 switch=n enabled=y phases=2 Linecode=1P_OH_AL_4/0_Zuzara_2

New Line.l(r:p6udt3933lv-p6ulv12438) Units=km Length=0.0730999 bus1=p6udt3933lv.1.2 bus2=p6ulv12438.1.2 switch=n enabled=y phases=2 Linecode=1P_OH_AL_4/0_Zuzara_2

New Line.l(r:p6udm13176-p6ulv12437) Units=km Length=0.0554761 bus1=p6udm13176.1.2 bus2=p6ulv12437.1.2 switch=n enabled=y phases=2 Linecode=1P_OH_AL_4/0_Zuzara_2

New Line.l(r:p6udm13176-p6udt3933lv) Units=km Length=0.0340955 bus1=p6udt3933lv.1.2 bus2=p6udm13176.1.2 switch=n enabled=y phases=2 Linecode=1P_OH_AL_4/0_Zuzara_2

New Line.l(r:p6udm13178-p6ulv12439) Units=km Length=0.0773569 bus1=p6udm13178.1.2 bus2=p6ulv12439.1.2 switch=n enabled=y phases=2 Linecode=1P_OH_AL_4/0_Zuzara_2

New Line.l(r:p6udm13178-p6udt3933lv) Units=km Length=0.0350709 bus1=p6udt3933lv.1.2 bus2=p6udm13178.1.2 switch=n enabled=y phases=2 Linecode=1P_OH_AL_4/0_Zuzara_2

New Line.l(r:p6udm13180-p6ulv12441) Units=km Length=0.061625 bus1=p6udm13180.1.2 bus2=p6ulv12441.1.2 switch=n enabled=y phases=2 Linecode=1P_OH_AL_4/0_Zuzara_2

New Line.l(r:p6udm13179-p6ulv12440) Units=km Length=0.0177471 bus1=p6udm13179.1.2 bus2=p6ulv12440.1.2 switch=n enabled=y phases=2 Linecode=1P_OH_AL_2/0_Rucina_2

New Line.l(r:p6udm13179-p6udm13180) Units=km Length=0.0259273 bus1=p6udm13180.1.2 bus2=p6udm13179.1.2 switch=n enabled=y phases=2 Linecode=1P_OH_AL_2/0_Rucina_2

New Line.l(r:p6udm13180-p6udt3934lv) Units=km Length=0.0194334 bus1=p6udt3934lv.1.2 bus2=p6udm13180.1.2 switch=n enabled=y phases=2 Linecode=1P_OH_AL_2/0_Rucina_2

New Line.l(r:p6udm13181-p6ulv12442) Units=km Length=0.0316437 bus1=p6udm13181.1.2 bus2=p6ulv12442.1.2 switch=n enabled=y phases=2 Linecode=1P_OH_AL_4/0_Zuzara_2

New Line.l(r:p6udm13182-p6ulv12443) Units=km Length=0.0175542 bus1=p6udm13182.1.2 bus2=p6ulv12443.1.2 switch=n enabled=y phases=2 Linecode=1P_OH_AL_2/0_Rucina_2

New Line.l(r:p6udm13181-p6udm13182) Units=km Length=0.0521563 bus1=p6udm13181.1.2 bus2=p6udm13182.1.2 switch=n enabled=y phases=2 Linecode=1P_OH_AL_4/0_Zuzara_2

New Line.l(r:p6udm13181-p6udt3934lv) Units=km Length=0.0191884 bus1=p6udt3934lv.1.2 bus2=p6udm13181.1.2 switch=n enabled=y phases=2 Linecode=1P_OH_AL_2/0_Rucina_2

New Line.l(r:p6udt3935lv-p6ulv12444) Units=km Length=0.0521454 bus1=p6udt3935lv.1.2 bus2=p6ulv12444.1.2 switch=n enabled=y phases=2 Linecode=1P_OH_AL_4/0_Zuzara_2

New Line.l(r:p6udt5733lv-p6ulv22509) Units=km Length=0.03279850000000001 bus1=p6udt5733lv.1.2 bus2=p6ulv22509.1.2 switch=n enabled=y phases=2 Linecode=1P_UG_AL_1/0_Brenau_2

New Line.l(r:p6udm20549-p6ulv19674) Units=km Length=0.014513 bus1=p6udm20549.1.2 bus2=p6ulv19674.1.2 switch=n enabled=y phases=2 Linecode=1P_OH_AL_2/0_Rucina_2

New Line.l(r:p6udm20549-p6udt5733lv) Units=km Length=0.0380381 bus1=p6udt5733lv.1.2 bus2=p6udm20549.1.2 switch=n enabled=y phases=2 Linecode=1P_OH_AL_4/0_Zuzara_2

New Line.l(r:p6udm20550-p6ulv22508) Units=km Length=0.0183835 bus1=p6udm20550.1.2 bus2=p6ulv22508.1.2 switch=n enabled=y phases=2 Linecode=1P_UG_AL_1/0_Brenau_2

New Line.l(r:p6udm20550-p6udt5733lv) Units=km Length=0.0352578 bus1=p6udt5733lv.1.2 bus2=p6udm20550.1.2 switch=n enabled=y phases=2 Linecode=1P_UG_AL_1/0_Brenau_2

New Line.l(r:p6udm20552-p6ulv19675) Units=km Length=0.026112 bus1=p6udm20552.1.2 bus2=p6ulv19675.1.2 switch=n enabled=y phases=2 Linecode=1P_UG_AL_1/0_Brenau_2

New Line.l(r:p6udm20552-p6udt5734lv) Units=km Length=0.00709965 bus1=p6udt5734lv.1.2 bus2=p6udm20552.1.2 switch=n enabled=y phases=2 Linecode=1P_UG_AL_1/0_Brenau_2

New Line.l(r:p6udm20553-p6ulv19676) Units=km Length=0.0206867 bus1=p6udm20553.1.2 bus2=p6ulv19676.1.2 switch=n enabled=y phases=2 Linecode=1P_UG_AL_1/0_Brenau_2

New Line.l(r:p6udm20553-p6udt5734lv) Units=km Length=0.00709913 bus1=p6udt5734lv.1.2 bus2=p6udm20553.1.2 switch=n enabled=y phases=2 Linecode=1P_UG_AL_1/0_Brenau_2

New Line.l(r:p6udt5736lv-p6ulv19678) Units=km Length=0.001 bus1=p6udt5736lv.1.2 bus2=p6ulv19678.1.2 switch=n enabled=y phases=2 Linecode=1P_OH_AL_4_Periwinkle_2

New Line.l(r:p6udt5737lv-p6ulv19680) Units=km Length=0.0187446 bus1=p6udt5737lv.1.2 bus2=p6ulv19680.1.2 switch=n enabled=y phases=2 Linecode=1P_OH_AL_2/0_Rucina_2

New Line.l(r:p6udm20558-p6ulv19681) Units=km Length=0.0121729 bus1=p6udm20558.1.2 bus2=p6ulv19681.1.2 switch=n enabled=y phases=2 Linecode=1P_OH_AL_2/0_Rucina_2

New Line.l(r:p6udm20556-p6ulv19679) Units=km Length=0.014986300000000001 bus1=p6udm20556.1.2 bus2=p6ulv19679.1.2 switch=n enabled=y phases=2 Linecode=1P_OH_AL_2/0_Rucina_2

New Line.l(r:p6udm20556-p6udm20558) Units=km Length=0.03721240000000001 bus1=p6udm20558.1.2 bus2=p6udm20556.1.2 switch=n enabled=y phases=2 Linecode=1P_OH_AL_4/0_Zuzara_2

New Line.l(r:p6udm20558-p6udt5737lv) Units=km Length=0.0220216 bus1=p6udt5737lv.1.2 bus2=p6udm20558.1.2 switch=n enabled=y phases=2 Linecode=1P_OH_AL_2/0_Rucina_2

New Line.l(r:p6udm20559-p6ulv19682) Units=km Length=0.00406262 bus1=p6udm20559.1.2 bus2=p6ulv19682.1.2 switch=n enabled=y phases=2 Linecode=1P_UG_AL_1/0_Brenau_2

New Line.l(r:p6udm20560-p6ulv19683) Units=km Length=0.0516122 bus1=p6udm20560.1.2 bus2=p6ulv19683.1.2 switch=n enabled=y phases=2 Linecode=1P_UG_AL_1/0_Brenau_2

New Line.l(r:p6udm20559-p6udm20560) Units=km Length=0.039730100000000004 bus1=p6udm20559.1.2 bus2=p6udm20560.1.2 switch=n enabled=y phases=2 Linecode=1P_UG_AL_1/0_Brenau_2

New Line.l(r:p6udm20559-p6udt5737lv) Units=km Length=0.00993002 bus1=p6udt5737lv.1.2 bus2=p6udm20559.1.2 switch=n enabled=y phases=2 Linecode=1P_OH_AL_2/0_Rucina_2

New Line.l(r:p6udt5738lv-p6ulv19684) Units=km Length=0.0710334 bus1=p6udt5738lv.1.2 bus2=p6ulv19684.1.2 switch=n enabled=y phases=2 Linecode=1P_UG_AL_1/0_Brenau_2

New Line.l(r:p6udm20562-p6ulv19685) Units=km Length=0.032569 bus1=p6udm20562.1.2 bus2=p6ulv19685.1.2 switch=n enabled=y phases=2 Linecode=1P_UG_AL_1/0_Brenau_2

New Line.l(r:p6udm20566-p6ulv22507) Units=km Length=0.0100082 bus1=p6udm20566.1.2 bus2=p6ulv22507.1.2 switch=n enabled=y phases=2 Linecode=1P_UG_AL_1/0_Brenau_2

New Line.l(r:p6udm20564-p6ulv22498) Units=km Length=0.0248253 bus1=p6udm20564.1.2 bus2=p6ulv22498.1.2 switch=n enabled=y phases=2 Linecode=1P_UG_AL_1/0_Brenau_2

New Line.l(r:p6udm20564-p6udm20566) Units=km Length=0.0456181 bus1=p6udm20566.1.2 bus2=p6udm20564.1.2 switch=n enabled=y phases=2 Linecode=1P_UG_AL_1/0_Brenau_2

New Line.l(r:p6udm20562-p6udm20566) Units=km Length=0.0306547 bus1=p6udm20562.1.2 bus2=p6udm20566.1.2 switch=n enabled=y phases=2 Linecode=1P_UG_AL_1/0_Brenau_2

New Line.l(r:p6udm20562-p6udt5739lv) Units=km Length=0.0137383 bus1=p6udt5739lv.1.2 bus2=p6udm20562.1.2 switch=n enabled=y phases=2 Linecode=1P_UG_AL_1/0_Brenau_2

New Line.l(r:p6udm20565-p6ulv22499) Units=km Length=0.0163493 bus1=p6udm20565.1.2 bus2=p6ulv22499.1.2 switch=n enabled=y phases=2 Linecode=1P_UG_AL_1/0_Brenau_2

New Line.l(r:p6udm20563-p6ulv19686) Units=km Length=0.0481967 bus1=p6udm20563.1.2 bus2=p6ulv19686.1.2 switch=n enabled=y phases=2 Linecode=1P_UG_AL_1/0_Brenau_2

New Line.l(r:p6udm20563-p6udm20565) Units=km Length=0.0077004 bus1=p6udm20565.1.2 bus2=p6udm20563.1.2 switch=n enabled=y phases=2 Linecode=1P_UG_AL_1/0_Brenau_2

New Line.l(r:p6udm20565-p6udt5739lv) Units=km Length=0.012766100000000002 bus1=p6udt5739lv.1.2 bus2=p6udm20565.1.2 switch=n enabled=y phases=2 Linecode=1P_UG_AL_1/0_Brenau_2

New Line.l(r:p6udm20567-p6ulv19687) Units=km Length=0.0382364 bus1=p6udm20567.1.2 bus2=p6ulv19687.1.2 switch=n enabled=y phases=2 Linecode=1P_UG_AL_1/0_Brenau_2

New Line.l(r:p6udm20568-p6ulv19688) Units=km Length=0.0227917 bus1=p6udm20568.1.2 bus2=p6ulv19688.1.2 switch=n enabled=y phases=2 Linecode=1P_UG_AL_1/0_Brenau_2

New Line.l(r:p6udm20569-p6ulv22493) Units=km Length=0.0625078 bus1=p6udm20569.1.2 bus2=p6ulv22493.1.2 switch=n enabled=y phases=2 Linecode=1P_UG_AL_1/0_Brenau_2

New Line.l(r:p6udm20570-p6ulv22494) Units=km Length=0.0446544 bus1=p6udm20570.1.2 bus2=p6ulv22494.1.2 switch=n enabled=y phases=2 Linecode=1P_UG_AL_1/0_Brenau_2

New Line.l(r:p6udm20569-p6udm20570) Units=km Length=0.00839277 bus1=p6udm20569.1.2 bus2=p6udm20570.1.2 switch=n enabled=y phases=2 Linecode=1P_UG_AL_1/0_Brenau_2

New Line.l(r:p6udm20568-p6udm20569) Units=km Length=0.0083833 bus1=p6udm20568.1.2 bus2=p6udm20569.1.2 switch=n enabled=y phases=2 Linecode=1P_UG_AL_1/0_Brenau_2

New Line.l(r:p6udm20567-p6udm20568) Units=km Length=0.0093158 bus1=p6udm20567.1.2 bus2=p6udm20568.1.2 switch=n enabled=y phases=2 Linecode=1P_UG_AL_1/0_Brenau_2

New Line.l(r:p6udm20567-p6udt5740lv) Units=km Length=0.00930667 bus1=p6udt5740lv.1.2 bus2=p6udm20567.1.2 switch=n enabled=y phases=2 Linecode=1P_UG_AL_1/0_Brenau_2

New Line.l(r:p6udm20571-p6ulv22510) Units=km Length=0.0158915 bus1=p6udm20571.1.2 bus2=p6ulv22510.1.2 switch=n enabled=y phases=2 Linecode=1P_UG_AL_1/0_Brenau_2

New Line.l(r:p6udm20571-p6udt5740lv) Units=km Length=0.0855959 bus1=p6udt5740lv.1.2 bus2=p6udm20571.1.2 switch=n enabled=y phases=2 Linecode=1P_UG_AL_1/0_Brenau_2

New Line.l(r:p6udt5741lv-p6ulv19689) Units=km Length=0.00711512 bus1=p6udt5741lv.1.2 bus2=p6ulv19689.1.2 switch=n enabled=y phases=2 Linecode=1P_UG_AL_1/0_Brenau_2

New Line.l(r:p6udt5741lv-p6ulv19690) Units=km Length=0.0221106 bus1=p6udt5741lv.1.2 bus2=p6ulv19690.1.2 switch=n enabled=y phases=2 Linecode=1P_UG_AL_1/0_Brenau_2

New Line.l(r:p6udm20574-p6ulv19691) Units=km Length=0.033823500000000006 bus1=p6udm20574.1.2 bus2=p6ulv19691.1.2 switch=n enabled=y phases=2 Linecode=1P_UG_AL_1/0_Brenau_2

New Line.l(r:p6udm20579-p6ulv22512) Units=km Length=0.0171494 bus1=p6udm20579.1.2 bus2=p6ulv22512.1.2 switch=n enabled=y phases=2 Linecode=1P_UG_AL_1/0_Brenau_2

New Line.l(r:p6udm20578-p6ulv22511) Units=km Length=0.0191941 bus1=p6udm20578.1.2 bus2=p6ulv22511.1.2 switch=n enabled=y phases=2 Linecode=1P_UG_AL_1/0_Brenau_2

New Line.l(r:p6udm20578-p6udm20579) Units=km Length=0.00972995 bus1=p6udm20579.1.2 bus2=p6udm20578.1.2 switch=n enabled=y phases=2 Linecode=1P_UG_AL_1/0_Brenau_2

New Line.l(r:p6udm20574-p6udm20579) Units=km Length=0.034751 bus1=p6udm20574.1.2 bus2=p6udm20579.1.2 switch=n enabled=y phases=2 Linecode=1P_UG_AL_1/0_Brenau_2

New Line.l(r:p6udm20574-p6udt5742lv) Units=km Length=0.027159 bus1=p6udt5742lv.1.2 bus2=p6udm20574.1.2 switch=n enabled=y phases=2 Linecode=1P_UG_AL_1/0_Brenau_2

New Line.l(r:p6udm20575-p6ulv19692) Units=km Length=0.0184188 bus1=p6udm20575.1.2 bus2=p6ulv19692.1.2 switch=n enabled=y phases=2 Linecode=1P_UG_AL_1/0_Brenau_2

New Line.l(r:p6udm20576-p6ulv19694) Units=km Length=0.0677646 bus1=p6udm20576.1.2 bus2=p6ulv19694.1.2 switch=n enabled=y phases=2 Linecode=1P_UG_AL_1/0_Brenau_2

New Line.l(r:p6udm20577-p6ulv19696) Units=km Length=0.056060000000000006 bus1=p6udm20577.1.2 bus2=p6ulv19696.1.2 switch=n enabled=y phases=2 Linecode=1P_UG_AL_1/0_Brenau_2

New Line.l(r:p6udm20576-p6udm20577) Units=km Length=0.0176507 bus1=p6udm20576.1.2 bus2=p6udm20577.1.2 switch=n enabled=y phases=2 Linecode=1P_UG_AL_1/0_Brenau_2

New Line.l(r:p6udm20575-p6udm20576) Units=km Length=0.0277112 bus1=p6udm20575.1.2 bus2=p6udm20576.1.2 switch=n enabled=y phases=2 Linecode=1P_UG_AL_1/0_Brenau_2

New Line.l(r:p6udm20575-p6udt5742lv) Units=km Length=0.00776418 bus1=p6udt5742lv.1.2 bus2=p6udm20575.1.2 switch=n enabled=y phases=2 Linecode=1P_UG_AL_1/0_Brenau_2

New Line.l(r:p6udt5743lv-p6ulv19695) Units=km Length=0.001 bus1=p6udt5743lv.1.2 bus2=p6ulv19695.1.2 switch=n enabled=y phases=2 Linecode=1P_UG_AL_1/0_Brenau_2

New Line.l(r:p6udm20582-p6ulv19699) Units=km Length=0.0183995 bus1=p6udm20582.1.2 bus2=p6ulv19699.1.2 switch=n enabled=y phases=2 Linecode=1P_UG_AL_1/0_Brenau_2

New Line.l(r:p6udm20581-p6ulv19697) Units=km Length=0.0184247 bus1=p6udm20581.1.2 bus2=p6ulv19697.1.2 switch=n enabled=y phases=2 Linecode=1P_UG_AL_1/0_Brenau_2

New Line.l(r:p6udm20581-p6udm20582) Units=km Length=0.00927097 bus1=p6udm20582.1.2 bus2=p6udm20581.1.2 switch=n enabled=y phases=2 Linecode=1P_UG_AL_1/0_Brenau_2

New Line.l(r:p6udm20582-p6udt5744lv) Units=km Length=0.0257863 bus1=p6udt5744lv.1.2 bus2=p6udm20582.1.2 switch=n enabled=y phases=2 Linecode=1P_UG_AL_1/0_Brenau_2

New Line.l(r:p6udm20583-p6ulv22513) Units=km Length=0.032906 bus1=p6udm20583.1.2 bus2=p6ulv22513.1.2 switch=n enabled=y phases=2 Linecode=1P_UG_AL_1/0_Brenau_2

New Line.l(r:p6udm20584-p6ulv22514) Units=km Length=0.0355111 bus1=p6udm20584.1.2 bus2=p6ulv22514.1.2 switch=n enabled=y phases=2 Linecode=1P_UG_AL_1/0_Brenau_2

New Line.l(r:p6udm20583-p6udm20584) Units=km Length=0.0472573 bus1=p6udm20583.1.2 bus2=p6udm20584.1.2 switch=n enabled=y phases=2 Linecode=1P_UG_AL_1/0_Brenau_2

New Line.l(r:p6udm20583-p6udt5744lv) Units=km Length=0.00593674 bus1=p6udt5744lv.1.2 bus2=p6udm20583.1.2 switch=n enabled=y phases=2 Linecode=1P_UG_AL_1/0_Brenau_2

New Line.l(r:p6udm20586-p6ulv19701) Units=km Length=0.0241959 bus1=p6udm20586.1.2 bus2=p6ulv19701.1.2 switch=n enabled=y phases=2 Linecode=1P_UG_AL_1/0_Brenau_2

New Line.l(r:p6udm20586-p6ulv19702) Units=km Length=0.0394977 bus1=p6udm20586.1.2 bus2=p6ulv19702.1.2 switch=n enabled=y phases=2 Linecode=1P_UG_AL_1/0_Brenau_2

New Line.l(r:p6udm20585-p6ulv19700) Units=km Length=0.0250631 bus1=p6udm20585.1.2 bus2=p6ulv19700.1.2 switch=n enabled=y phases=2 Linecode=1P_UG_AL_1/0_Brenau_2

New Line.l(r:p6udm20585-p6udm20586) Units=km Length=0.00908153 bus1=p6udm20586.1.2 bus2=p6udm20585.1.2 switch=n enabled=y phases=2 Linecode=1P_UG_AL_1/0_Brenau_2

New Line.l(r:p6udm20586-p6udt5745lv) Units=km Length=0.00907167 bus1=p6udt5745lv.1.2 bus2=p6udm20586.1.2 switch=n enabled=y phases=2 Linecode=1P_UG_AL_1/0_Brenau_2

New Line.l(r:p6udm20590-p6ulv19705) Units=km Length=0.0240256 bus1=p6udm20590.1.2 bus2=p6ulv19705.1.2 switch=n enabled=y phases=2 Linecode=1P_UG_AL_1/0_Brenau_2

New Line.l(r:p6udm20588-p6ulv19703) Units=km Length=0.0375452 bus1=p6udm20588.1.2 bus2=p6ulv19703.1.2 switch=n enabled=y phases=2 Linecode=1P_UG_AL_1/0_Brenau_2

New Line.l(r:p6udm20589-p6ulv19704) Units=km Length=0.0345228 bus1=p6udm20589.1.2 bus2=p6ulv19704.1.2 switch=n enabled=y phases=2 Linecode=1P_UG_AL_1/0_Brenau_2

New Line.l(r:p6udm20588-p6udm20589) Units=km Length=0.00928106 bus1=p6udm20588.1.2 bus2=p6udm20589.1.2 switch=n enabled=y phases=2 Linecode=1P_UG_AL_1/0_Brenau_2

New Line.l(r:p6udm20588-p6udm20590) Units=km Length=0.009290910000000001 bus1=p6udm20590.1.2 bus2=p6udm20588.1.2 switch=n enabled=y phases=2 Linecode=1P_UG_AL_1/0_Brenau_2

New Line.l(r:p6udm20590-p6udt5745lv) Units=km Length=0.009290910000000001 bus1=p6udt5745lv.1.2 bus2=p6udm20590.1.2 switch=n enabled=y phases=2 Linecode=1P_UG_AL_1/0_Brenau_2

New Line.l(r:p6udt5746lv-p6ulv19718) Units=km Length=0.0258834 bus1=p6udt5746lv.1.2 bus2=p6ulv19718.1.2 switch=n enabled=y phases=2 Linecode=1P_OH_AL_2/0_Rucina_2

New Line.l(r:p6udm20591-p6ulv19706) Units=km Length=0.0884078 bus1=p6udm20591.1.2 bus2=p6ulv19706.1.2 switch=n enabled=y phases=2 Linecode=1P_OH_AL_4/0_Zuzara_2

New Line.l(r:p6udm20591-p6ulv19719) Units=km Length=0.0191151 bus1=p6udm20591.1.2 bus2=p6ulv19719.1.2 switch=n enabled=y phases=2 Linecode=1P_OH_AL_2/0_Rucina_2

New Line.l(r:p6udm20591-p6ulv19725) Units=km Length=0.0901727 bus1=p6udm20591.1.2 bus2=p6ulv19725.1.2 switch=n enabled=y phases=2 Linecode=1P_OH_AL_4/0_Zuzara_2

New Line.l(r:p6udm20595-p6ulv19723) Units=km Length=0.0508382 bus1=p6udm20595.1.2 bus2=p6ulv19723.1.2 switch=n enabled=y phases=2 Linecode=1P_OH_AL_4/0_Zuzara_2

New Line.l(r:p6udm20591-p6udm20595) Units=km Length=0.0174719 bus1=p6udm20591.1.2 bus2=p6udm20595.1.2 switch=n enabled=y phases=2 Linecode=1P_OH_AL_2/0_Rucina_2

New Line.l(r:p6udm20591-p6udt5746lv) Units=km Length=0.0171493 bus1=p6udt5746lv.1.2 bus2=p6udm20591.1.2 switch=n enabled=y phases=2 Linecode=1P_OH_AL_2/0_Rucina_2

New Line.l(r:p6udm20594-p6ulv19720) Units=km Length=0.0873369 bus1=p6udm20594.1.2 bus2=p6ulv19720.1.2 switch=n enabled=y phases=2 Linecode=1P_OH_AL_4/0_Zuzara_2

New Line.l(r:p6udm20594-p6udt5746lv) Units=km Length=0.0171493 bus1=p6udt5746lv.1.2 bus2=p6udm20594.1.2 switch=n enabled=y phases=2 Linecode=1P_OH_AL_2/0_Rucina_2

New Line.l(r:p6udt5747lv-p6ulv19709) Units=km Length=0.0851413 bus1=p6udt5747lv.1.2 bus2=p6ulv19709.1.2 switch=n enabled=y phases=2 Linecode=1P_OH_AL_4/0_Zuzara_2

New Line.l(r:p6udm20597-p6ulv19707) Units=km Length=0.0365241 bus1=p6udm20597.1.2 bus2=p6ulv19707.1.2 switch=n enabled=y phases=2 Linecode=1P_OH_AL_4/0_Zuzara_2

New Line.l(r:p6udm20597-p6ulv19708) Units=km Length=0.0423675 bus1=p6udm20597.1.2 bus2=p6ulv19708.1.2 switch=n enabled=y phases=2 Linecode=1P_OH_AL_4/0_Zuzara_2

New Line.l(r:p6udm20597-p6udt5747lv) Units=km Length=0.0144073 bus1=p6udt5747lv.1.2 bus2=p6udm20597.1.2 switch=n enabled=y phases=2 Linecode=1P_OH_AL_2/0_Rucina_2

New Line.l(r:p6udt5748lv-p6ulv19712) Units=km Length=0.0515272 bus1=p6udt5748lv.1.2 bus2=p6ulv19712.1.2 switch=n enabled=y phases=2 Linecode=1P_OH_AL_4/0_Zuzara_2

New Line.l(r:p6udm20600-p6ulv19710) Units=km Length=0.0480546 bus1=p6udm20600.1.2 bus2=p6ulv19710.1.2 switch=n enabled=y phases=2 Linecode=1P_OH_AL_4/0_Zuzara_2

New Line.l(r:p6udm20600-p6ulv19711) Units=km Length=0.03237430000000001 bus1=p6udm20600.1.2 bus2=p6ulv19711.1.2 switch=n enabled=y phases=2 Linecode=1P_OH_AL_4/0_Zuzara_2

New Line.l(r:p6udm20600-p6udt5748lv) Units=km Length=0.0166618 bus1=p6udt5748lv.1.2 bus2=p6udm20600.1.2 switch=n enabled=y phases=2 Linecode=1P_OH_AL_2/0_Rucina_2

New Line.l(r:p6udm20603-p6ulv19714) Units=km Length=0.05428290000000001 bus1=p6udm20603.1.2 bus2=p6ulv19714.1.2 switch=n enabled=y phases=2 Linecode=1P_OH_AL_4/0_Zuzara_2

New Line.l(r:p6udm20603-p6udt5748lv) Units=km Length=0.0166688 bus1=p6udt5748lv.1.2 bus2=p6udm20603.1.2 switch=n enabled=y phases=2 Linecode=1P_OH_AL_2/0_Rucina_2

New Line.l(r:p6udt5749lv-p6ulv19713) Units=km Length=0.07810020000000001 bus1=p6udt5749lv.1.2 bus2=p6ulv19713.1.2 switch=n enabled=y phases=2 Linecode=1P_OH_AL_4/0_Zuzara_2

New Line.l(r:p6udm20606-p6ulv19716) Units=km Length=0.028867300000000002 bus1=p6udm20606.1.2 bus2=p6ulv19716.1.2 switch=n enabled=y phases=2 Linecode=1P_OH_AL_4/0_Zuzara_2

New Line.l(r:p6udm20605-p6ulv19715) Units=km Length=0.0198962 bus1=p6udm20605.1.2 bus2=p6ulv19715.1.2 switch=n enabled=y phases=2 Linecode=1P_OH_AL_2/0_Rucina_2

New Line.l(r:p6udm20605-p6udm20606) Units=km Length=0.016837800000000003 bus1=p6udm20606.1.2 bus2=p6udm20605.1.2 switch=n enabled=y phases=2 Linecode=1P_OH_AL_2/0_Rucina_2

New Line.l(r:p6udm20606-p6udt5750lv) Units=km Length=0.0170023 bus1=p6udt5750lv.1.2 bus2=p6udm20606.1.2 switch=n enabled=y phases=2 Linecode=1P_OH_AL_2/0_Rucina_2

New Line.l(r:p6udm20607-p6ulv19717) Units=km Length=0.0823151 bus1=p6udm20607.1.2 bus2=p6ulv19717.1.2 switch=n enabled=y phases=2 Linecode=1P_OH_AL_4/0_Zuzara_2

New Line.l(r:p6udm20607-p6udt5750lv) Units=km Length=0.0170799 bus1=p6udt5750lv.1.2 bus2=p6udm20607.1.2 switch=n enabled=y phases=2 Linecode=1P_OH_AL_2/0_Rucina_2

New Line.l(r:p6udt5751lv-p6ulv19721) Units=km Length=0.005127050000000001 bus1=p6udt5751lv.1.2 bus2=p6ulv19721.1.2 switch=n enabled=y phases=2 Linecode=1P_OH_AL_2/0_Rucina_2

New Line.l(r:p6udt5751lv-p6ulv19722) Units=km Length=0.005127050000000001 bus1=p6udt5751lv.1.2 bus2=p6ulv19722.1.2 switch=n enabled=y phases=2 Linecode=1P_OH_AL_2/0_Rucina_2

New Line.l(r:p6udt5752lv-p6ulv19724) Units=km Length=0.0552443 bus1=p6udt5752lv.1.2 bus2=p6ulv19724.1.2 switch=n enabled=y phases=2 Linecode=1P_OH_AL_4/0_Zuzara_2

New Line.l(r:p6udt5753lv-p6ulv19727) Units=km Length=0.0175267 bus1=p6udt5753lv.1.2 bus2=p6ulv19727.1.2 switch=n enabled=y phases=2 Linecode=1P_UG_AL_1/0_Brenau_2

New Line.l(r:p6udm20611-p6ulv19726) Units=km Length=0.0042177 bus1=p6udm20611.1.2 bus2=p6ulv19726.1.2 switch=n enabled=y phases=2 Linecode=1P_UG_AL_1/0_Brenau_2

New Line.l(r:p6udm20611-p6udt5753lv) Units=km Length=0.020751 bus1=p6udt5753lv.1.2 bus2=p6udm20611.1.2 switch=n enabled=y phases=2 Linecode=1P_UG_AL_1/0_Brenau_2

New Line.l(r:p6udm20613-p6ulv19728) Units=km Length=0.0222081 bus1=p6udm20613.1.2 bus2=p6ulv19728.1.2 switch=n enabled=y phases=2 Linecode=1P_UG_AL_1/0_Brenau_2

New Line.l(r:p6udm20613-p6udt5753lv) Units=km Length=0.0181369 bus1=p6udt5753lv.1.2 bus2=p6udm20613.1.2 switch=n enabled=y phases=2 Linecode=1P_UG_AL_1/0_Brenau_2

New Line.l(r:p6udt5754lv-p6ulv19729) Units=km Length=0.0667411 bus1=p6udt5754lv.1.2 bus2=p6ulv19729.1.2 switch=n enabled=y phases=2 Linecode=1P_OH_AL_4/0_Zuzara_2

New Line.l(r:p6udt5754lv-p6ulv19730) Units=km Length=0.0888144 bus1=p6udt5754lv.1.2 bus2=p6ulv19730.1.2 switch=n enabled=y phases=2 Linecode=1P_OH_AL_4/0_Zuzara_2

New Line.l(r:p6udt5755lv-p6ulv19731) Units=km Length=0.001 bus1=p6udt5755lv.1.2 bus2=p6ulv19731.1.2 switch=n enabled=y phases=2 Linecode=1P_OH_AL_4_Periwinkle_2

New Line.l(r:p6udm20617-p6ulv19732) Units=km Length=0.0412479 bus1=p6udm20617.1.2 bus2=p6ulv19732.1.2 switch=n enabled=y phases=2 Linecode=1P_OH_AL_4/0_Zuzara_2

New Line.l(r:p6udm20617-p6udt5756lv) Units=km Length=0.0191915 bus1=p6udt5756lv.1.2 bus2=p6udm20617.1.2 switch=n enabled=y phases=2 Linecode=1P_OH_AL_2/0_Rucina_2

New Line.l(r:p6udm20618-p6ulv22544) Units=km Length=0.060482 bus1=p6udm20618.1.2 bus2=p6ulv22544.1.2 switch=n enabled=y phases=2 Linecode=1P_OH_AL_4/0_Zuzara_2

New Line.l(r:p6udm20618-p6udt5756lv) Units=km Length=0.019197300000000004 bus1=p6udt5756lv.1.2 bus2=p6udm20618.1.2 switch=n enabled=y phases=2 Linecode=1P_OH_AL_2/0_Rucina_2

New Line.l(r:p6udt5757lv-p6ulv19733) Units=km Length=0.0269743 bus1=p6udt5757lv.1.2 bus2=p6ulv19733.1.2 switch=n enabled=y phases=2 Linecode=1P_OH_AL_2/0_Rucina_2

New Line.l(r:p6udt5758lv-p6ulv19734) Units=km Length=0.0320222 bus1=p6udt5758lv.1.2 bus2=p6ulv19734.1.2 switch=n enabled=y phases=2 Linecode=1P_OH_AL_4/0_Zuzara_2

New Line.l(r:p6udm20621-p6ulv19735) Units=km Length=0.0411204 bus1=p6udm20621.1.2 bus2=p6ulv19735.1.2 switch=n enabled=y phases=2 Linecode=1P_OH_AL_4/0_Zuzara_2

New Line.l(r:p6udm20621-p6ulv19736) Units=km Length=0.0328655 bus1=p6udm20621.1.2 bus2=p6ulv19736.1.2 switch=n enabled=y phases=2 Linecode=1P_OH_AL_4/0_Zuzara_2

New Line.l(r:p6udm20621-p6udt5759lv) Units=km Length=0.0144267 bus1=p6udt5759lv.1.2 bus2=p6udm20621.1.2 switch=n enabled=y phases=2 Linecode=1P_OH_AL_2/0_Rucina_2

New Line.l(r:p6udm20623-p6ulv23377) Units=km Length=0.049370700000000003 bus1=p6udm20623.1.2 bus2=p6ulv23377.1.2 switch=n enabled=y phases=2 Linecode=1P_OH_AL_4/0_Zuzara_2

New Line.l(r:p6udm20623-p6udt5759lv) Units=km Length=0.031082700000000005 bus1=p6udt5759lv.1.2 bus2=p6udm20623.1.2 switch=n enabled=y phases=2 Linecode=1P_OH_AL_4/0_Zuzara_2

New Line.l(r:p6udt5760lv-p6ulv19737) Units=km Length=0.001 bus1=p6udt5760lv.1.2 bus2=p6ulv19737.1.2 switch=n enabled=y phases=2 Linecode=1P_OH_AL_4_Periwinkle_2

New Line.l(r:p6udt6342lv-p6ulv22235) Units=km Length=0.0208905 bus1=p6udt6342lv.1.2 bus2=p6ulv22235.1.2 switch=n enabled=y phases=2 Linecode=1P_OH_AL_2/0_Rucina_2

New Line.l(r:p6udt6342lv-p6ulv22236) Units=km Length=0.0196405 bus1=p6udt6342lv.1.2 bus2=p6ulv22236.1.2 switch=n enabled=y phases=2 Linecode=1P_OH_AL_2/0_Rucina_2

New Line.l(r:p6udt6342lv-p6ulv22237) Units=km Length=0.0285213 bus1=p6udt6342lv.1.2 bus2=p6ulv22237.1.2 switch=n enabled=y phases=2 Linecode=1P_OH_AL_4/0_Zuzara_2

New Line.l(r:p6udt6342lv-p6ulv22238) Units=km Length=0.0388429 bus1=p6udt6342lv.1.2 bus2=p6ulv22238.1.2 switch=n enabled=y phases=2 Linecode=1P_OH_AL_4/0_Zuzara_2

New Line.l(r:p6udt6342lv-p6ulv22239) Units=km Length=0.0206837 bus1=p6udt6342lv.1.2 bus2=p6ulv22239.1.2 switch=n enabled=y phases=2 Linecode=1P_OH_AL_2/0_Rucina_2

New Line.l(r:p6udt6343lv-p6ulv22241) Units=km Length=0.0411041 bus1=p6udt6343lv.1.2 bus2=p6ulv22241.1.2 switch=n enabled=y phases=2 Linecode=1P_OH_AL_4/0_Zuzara_2

New Line.l(r:p6udt6343lv-p6ulv22245) Units=km Length=0.0556608 bus1=p6udt6343lv.1.2 bus2=p6ulv22245.1.2 switch=n enabled=y phases=2 Linecode=1P_OH_AL_4/0_Zuzara_2

New Line.l(r:p6udm23022-p6ulv22240) Units=km Length=0.0142459 bus1=p6udm23022.1.2 bus2=p6ulv22240.1.2 switch=n enabled=y phases=2 Linecode=1P_OH_AL_2/0_Rucina_2

New Line.l(r:p6udm23024-p6ulv22242) Units=km Length=0.0137211 bus1=p6udm23024.1.2 bus2=p6ulv22242.1.2 switch=n enabled=y phases=2 Linecode=1P_OH_AL_2/0_Rucina_2
