New Load.load_p6ulv12413_1 conn=wye bus1=p6ulv12413.1 kV=0.12 Vminpu=0.8 Vmaxpu=1.2 model=1 kva=0.4400045 pf=1.0 Phases=1
New Load.load_p6ulv12414_2 conn=wye bus1=p6ulv12414.2 kV=0.12 Vminpu=0.8 Vmaxpu=1.2 model=1 kva=1.18001 pf=1.0 Phases=1
New Load.load_p6ulv12415_1 conn=wye bus1=p6ulv12415.1 kV=0.12 Vminpu=0.8 Vmaxpu=1.2 model=1 kva=0.6550050000000001 pf=1.0 Phases=1
New Load.load_p6ulv12415_2 conn=wye bus1=p6ulv12415.2 kV=0.12 Vminpu=0.8 Vmaxpu=1.2 model=1 kva=0.6550050000000001 pf=1.0 Phases=1
New Load.load_p6ulv12416_1 conn=wye bus1=p6ulv12416.1 kV=0.12 Vminpu=0.8 Vmaxpu=1.2 model=1 kva=0.4350045 pf=1.0 Phases=1
New Load.load_p6ulv12417_2 conn=wye bus1=p6ulv12417.2 kV=0.12 Vminpu=0.8 Vmaxpu=1.2 model=1 kva=1.355015 pf=1.0 Phases=1
New Load.load_p6ulv12418_1 conn=wye bus1=p6ulv12418.1 kV=0.12 Vminpu=0.8 Vmaxpu=1.2 model=1 kva=0.565005 pf=1.0 Phases=1
New Load.load_p6ulv12418_2 conn=wye bus1=p6ulv12418.2 kV=0.12 Vminpu=0.8 Vmaxpu=1.2 model=1 kva=0.565005 pf=1.0 Phases=1
New Load.load_p6ulv12419_1 conn=wye bus1=p6ulv12419.1 kV=0.12 Vminpu=0.8 Vmaxpu=1.2 model=1 kva=0.3700035 pf=1.0 Phases=1
New Load.load_p6ulv12419_2 conn=wye bus1=p6ulv12419.2 kV=0.12 Vminpu=0.8 Vmaxpu=1.2 model=1 kva=0.3700035 pf=1.0 Phases=1
New Load.load_p6ulv12420_2 conn=wye bus1=p6ulv12420.2 kV=0.12 Vminpu=0.8 Vmaxpu=1.2 model=1 kva=0.390004 pf=1.0 Phases=1
New Load.load_p6ulv12421_1 conn=wye bus1=p6ulv12421.1 kV=0.12 Vminpu=0.8 Vmaxpu=1.2 model=1 kva=1.360015 pf=1.0 Phases=1
New Load.load_p6ulv12421_2 conn=wye bus1=p6ulv12421.2 kV=0.12 Vminpu=0.8 Vmaxpu=1.2 model=1 kva=1.360015 pf=1.0 Phases=1
New Load.load_p6ulv12422_1 conn=wye bus1=p6ulv12422.1 kV=0.12 Vminpu=0.8 Vmaxpu=1.2 model=1 kva=0.81001 pf=1.0 Phases=1
New Load.load_p6ulv12422_2 conn=wye bus1=p6ulv12422.2 kV=0.12 Vminpu=0.8 Vmaxpu=1.2 model=1 kva=0.81001 pf=1.0 Phases=1
New Load.load_p6ulv12424_1 conn=wye bus1=p6ulv12424.1 kV=0.12 Vminpu=0.8 Vmaxpu=1.2 model=1 kva=0.89001 pf=1.0 Phases=1
New Load.load_p6ulv12424_2 conn=wye bus1=p6ulv12424.2 kV=0.12 Vminpu=0.8 Vmaxpu=1.2 model=1 kva=0.89001 pf=1.0 Phases=1
New Load.load_p6ulv12425_1 conn=wye bus1=p6ulv12425.1 kV=0.12 Vminpu=0.8 Vmaxpu=1.2 model=1 kva=1.700015 pf=1.0 Phases=1
New Load.load_p6ulv12425_2 conn=wye bus1=p6ulv12425.2 kV=0.12 Vminpu=0.8 Vmaxpu=1.2 model=1 kva=1.700015 pf=1.0 Phases=1
New Load.load_p6ulv12426_1 conn=wye bus1=p6ulv12426.1 kV=0.12 Vminpu=0.8 Vmaxpu=1.2 model=1 kva=2.02502 pf=1.0 Phases=1
New Load.load_p6ulv12427_2 conn=wye bus1=p6ulv12427.2 kV=0.12 Vminpu=0.8 Vmaxpu=1.2 model=1 kva=0.33000350000000006 pf=1.0 Phases=1
New Load.load_p6ulv12428_1 conn=wye bus1=p6ulv12428.1 kV=0.12 Vminpu=0.8 Vmaxpu=1.2 model=1 kva=0.97501 pf=1.0 Phases=1
New Load.load_p6ulv12428_2 conn=wye bus1=p6ulv12428.2 kV=0.12 Vminpu=0.8 Vmaxpu=1.2 model=1 kva=0.97501 pf=1.0 Phases=1
New Load.load_p6ulv12429_1 conn=wye bus1=p6ulv12429.1 kV=0.12 Vminpu=0.8 Vmaxpu=1.2 model=1 kva=0.730005 pf=1.0 Phases=1
New Load.load_p6ulv12429_2 conn=wye bus1=p6ulv12429.2 kV=0.12 Vminpu=0.8 Vmaxpu=1.2 model=1 kva=0.730005 pf=1.0 Phases=1
New Load.load_p6ulv12430_2 conn=wye bus1=p6ulv12430.2 kV=0.12 Vminpu=0.8 Vmaxpu=1.2 model=1 kva=0.600005 pf=1.0 Phases=1
New Load.load_p6ulv12431_1 conn=wye bus1=p6ulv12431.1 kV=0.12 Vminpu=0.8 Vmaxpu=1.2 model=1 kva=1.00001 pf=1.0 Phases=1
New Load.load_p6ulv12431_2 conn=wye bus1=p6ulv12431.2 kV=0.12 Vminpu=0.8 Vmaxpu=1.2 model=1 kva=1.00001 pf=1.0 Phases=1
New Load.load_p6ulv12432_1 conn=wye bus1=p6ulv12432.1 kV=0.12 Vminpu=0.8 Vmaxpu=1.2 model=1 kva=0.590005 pf=1.0 Phases=1
New Load.load_p6ulv12433_1 conn=wye bus1=p6ulv12433.1 kV=0.12 Vminpu=0.8 Vmaxpu=1.2 model=1 kva=1.05501 pf=1.0 Phases=1
New Load.load_p6ulv12433_2 conn=wye bus1=p6ulv12433.2 kV=0.12 Vminpu=0.8 Vmaxpu=1.2 model=1 kva=1.05501 pf=1.0 Phases=1
New Load.load_p6ulv12434_1 conn=wye bus1=p6ulv12434.1 kV=0.12 Vminpu=0.8 Vmaxpu=1.2 model=1 kva=0.46000450000000004 pf=1.0 Phases=1
New Load.load_p6ulv12435_1 conn=wye bus1=p6ulv12435.1 kV=0.12 Vminpu=0.8 Vmaxpu=1.2 model=1 kva=1.13501 pf=1.0 Phases=1
New Load.load_p6ulv12435_2 conn=wye bus1=p6ulv12435.2 kV=0.12 Vminpu=0.8 Vmaxpu=1.2 model=1 kva=1.13501 pf=1.0 Phases=1
New Load.load_p6ulv12436_1 conn=wye bus1=p6ulv12436.1 kV=0.12 Vminpu=0.8 Vmaxpu=1.2 model=1 kva=0.78001 pf=1.0 Phases=1
New Load.load_p6ulv12437_2 conn=wye bus1=p6ulv12437.2 kV=0.12 Vminpu=0.8 Vmaxpu=1.2 model=1 kva=1.14001 pf=1.0 Phases=1
New Load.load_p6ulv12438_2 conn=wye bus1=p6ulv12438.2 kV=0.12 Vminpu=0.8 Vmaxpu=1.2 model=1 kva=0.400004 pf=1.0 Phases=1
New Load.load_p6ulv12439_1 conn=wye bus1=p6ulv12439.1 kV=0.12 Vminpu=0.8 Vmaxpu=1.2 model=1 kva=0.84501 pf=1.0 Phases=1
New Load.load_p6ulv12440_1 conn=wye bus1=p6ulv12440.1 kV=0.12 Vminpu=0.8 Vmaxpu=1.2 model=1 kva=0.420004 pf=1.0 Phases=1
New Load.load_p6ulv12440_2 conn=wye bus1=p6ulv12440.2 kV=0.12 Vminpu=0.8 Vmaxpu=1.2 model=1 kva=0.420004 pf=1.0 Phases=1
New Load.load_p6ulv12441_1 conn=wye bus1=p6ulv12441.1 kV=0.12 Vminpu=0.8 Vmaxpu=1.2 model=1 kva=1.720015 pf=1.0 Phases=1
New Load.load_p6ulv12441_2 conn=wye bus1=p6ulv12441.2 kV=0.12 Vminpu=0.8 Vmaxpu=1.2 model=1 kva=1.720015 pf=1.0 Phases=1
New Load.load_p6ulv12444_1 conn=wye bus1=p6ulv12444.1 kV=0.12 Vminpu=0.8 Vmaxpu=1.2 model=1 kva=1.300015 pf=1.0 Phases=1
New Load.load_p6ulv19674_1 conn=wye bus1=p6ulv19674.1 kV=0.12 Vminpu=0.8 Vmaxpu=1.2 model=1 kva=1.05501 pf=1.0 Phases=1
New Load.load_p6ulv19674_2 conn=wye bus1=p6ulv19674.2 kV=0.12 Vminpu=0.8 Vmaxpu=1.2 model=1 kva=1.05501 pf=1.0 Phases=1
New Load.load_p6ulv19675_1 conn=wye bus1=p6ulv19675.1 kV=0.12 Vminpu=0.8 Vmaxpu=1.2 model=1 kva=1.480015 pf=1.0 Phases=1
New Load.load_p6ulv19676_1 conn=wye bus1=p6ulv19676.1 kV=0.12 Vminpu=0.8 Vmaxpu=1.2 model=1 kva=0.4500045 pf=1.0 Phases=1
New Load.load_p6ulv19679_1 conn=wye bus1=p6ulv19679.1 kV=0.12 Vminpu=0.8 Vmaxpu=1.2 model=1 kva=0.275003 pf=1.0 Phases=1
New Load.load_p6ulv19679_2 conn=wye bus1=p6ulv19679.2 kV=0.12 Vminpu=0.8 Vmaxpu=1.2 model=1 kva=0.275003 pf=1.0 Phases=1
New Load.load_p6ulv19680_1 conn=wye bus1=p6ulv19680.1 kV=0.12 Vminpu=0.8 Vmaxpu=1.2 model=1 kva=0.3500035 pf=1.0 Phases=1
New Load.load_p6ulv19681_2 conn=wye bus1=p6ulv19681.2 kV=0.12 Vminpu=0.8 Vmaxpu=1.2 model=1 kva=0.480005 pf=1.0 Phases=1
New Load.load_p6ulv19682_1 conn=wye bus1=p6ulv19682.1 kV=0.12 Vminpu=0.8 Vmaxpu=1.2 model=1 kva=0.9900100000000001 pf=1.0 Phases=1
New Load.load_p6ulv19683_1 conn=wye bus1=p6ulv19683.1 kV=0.12 Vminpu=0.8 Vmaxpu=1.2 model=1 kva=0.4500045 pf=1.0 Phases=1
New Load.load_p6ulv19683_2 conn=wye bus1=p6ulv19683.2 kV=0.12 Vminpu=0.8 Vmaxpu=1.2 model=1 kva=0.4500045 pf=1.0 Phases=1
New Load.load_p6ulv19684_1 conn=wye bus1=p6ulv19684.1 kV=0.12 Vminpu=0.8 Vmaxpu=1.2 model=1 kva=1.90002 pf=1.0 Phases=1
New Load.load_p6ulv19684_2 conn=wye bus1=p6ulv19684.2 kV=0.12 Vminpu=0.8 Vmaxpu=1.2 model=1 kva=1.90002 pf=1.0 Phases=1
New Load.load_p6ulv19685_1 conn=wye bus1=p6ulv19685.1 kV=0.12 Vminpu=0.8 Vmaxpu=1.2 model=1 kva=1.10501 pf=1.0 Phases=1
New Load.load_p6ulv19685_2 conn=wye bus1=p6ulv19685.2 kV=0.12 Vminpu=0.8 Vmaxpu=1.2 model=1 kva=1.10501 pf=1.0 Phases=1
New Load.load_p6ulv19686_2 conn=wye bus1=p6ulv19686.2 kV=0.12 Vminpu=0.8 Vmaxpu=1.2 model=1 kva=0.405004 pf=1.0 Phases=1
New Load.load_p6ulv19687_1 conn=wye bus1=p6ulv19687.1 kV=0.12 Vminpu=0.8 Vmaxpu=1.2 model=1 kva=0.2600025 pf=1.0 Phases=1
New Load.load_p6ulv19687_2 conn=wye bus1=p6ulv19687.2 kV=0.12 Vminpu=0.8 Vmaxpu=1.2 model=1 kva=0.2600025 pf=1.0 Phases=1
New Load.load_p6ulv19688_1 conn=wye bus1=p6ulv19688.1 kV=0.12 Vminpu=0.8 Vmaxpu=1.2 model=1 kva=1.520015 pf=1.0 Phases=1
New Load.load_p6ulv19688_2 conn=wye bus1=p6ulv19688.2 kV=0.12 Vminpu=0.8 Vmaxpu=1.2 model=1 kva=1.520015 pf=1.0 Phases=1
New Load.load_p6ulv19689_1 conn=wye bus1=p6ulv19689.1 kV=0.12 Vminpu=0.8 Vmaxpu=1.2 model=1 kva=1.12501 pf=1.0 Phases=1
New Load.load_p6ulv19690_1 conn=wye bus1=p6ulv19690.1 kV=0.12 Vminpu=0.8 Vmaxpu=1.2 model=1 kva=0.4250045 pf=1.0 Phases=1
New Load.load_p6ulv19690_2 conn=wye bus1=p6ulv19690.2 kV=0.12 Vminpu=0.8 Vmaxpu=1.2 model=1 kva=0.4250045 pf=1.0 Phases=1
New Load.load_p6ulv19692_2 conn=wye bus1=p6ulv19692.2 kV=0.12 Vminpu=0.8 Vmaxpu=1.2 model=1 kva=0.9900100000000001 pf=1.0 Phases=1
New Load.load_p6ulv19693_1 conn=wye bus1=p6ulv19692.1 kV=0.12 Vminpu=0.8 Vmaxpu=1.2 model=1 kva=0.4550045 pf=1.0 Phases=1
New Load.load_p6ulv19693_2 conn=wye bus1=p6ulv19692.2 kV=0.12 Vminpu=0.8 Vmaxpu=1.2 model=1 kva=0.4550045 pf=1.0 Phases=1
New Load.load_p6ulv19694_1 conn=wye bus1=p6ulv19694.1 kV=0.12 Vminpu=0.8 Vmaxpu=1.2 model=1 kva=1.2550150000000002 pf=1.0 Phases=1
New Load.load_p6ulv19694_2 conn=wye bus1=p6ulv19694.2 kV=0.12 Vminpu=0.8 Vmaxpu=1.2 model=1 kva=1.2550150000000002 pf=1.0 Phases=1
New Load.load_p6ulv19695_1 conn=wye bus1=p6ulv19695.1 kV=0.12 Vminpu=0.8 Vmaxpu=1.2 model=1 kva=0.3700035 pf=1.0 Phases=1
New Load.load_p6ulv19695_2 conn=wye bus1=p6ulv19695.2 kV=0.12 Vminpu=0.8 Vmaxpu=1.2 model=1 kva=0.3700035 pf=1.0 Phases=1
New Load.load_p6ulv19696_1 conn=wye bus1=p6ulv19696.1 kV=0.12 Vminpu=0.8 Vmaxpu=1.2 model=1 kva=0.82501 pf=1.0 Phases=1
New Load.load_p6ulv19696_2 conn=wye bus1=p6ulv19696.2 kV=0.12 Vminpu=0.8 Vmaxpu=1.2 model=1 kva=0.82501 pf=1.0 Phases=1
New Load.load_p6ulv19697_1 conn=wye bus1=p6ulv19697.1 kV=0.12 Vminpu=0.8 Vmaxpu=1.2 model=1 kva=1.4000150000000002 pf=1.0 Phases=1
New Load.load_p6ulv19698_1 conn=wye bus1=p6ulv19697.1 kV=0.12 Vminpu=0.8 Vmaxpu=1.2 model=1 kva=0.3600035 pf=1.0 Phases=1
New Load.load_p6ulv19698_2 conn=wye bus1=p6ulv19697.2 kV=0.12 Vminpu=0.8 Vmaxpu=1.2 model=1 kva=0.3600035 pf=1.0 Phases=1
New Load.load_p6ulv19699_1 conn=wye bus1=p6ulv19699.1 kV=0.12 Vminpu=0.8 Vmaxpu=1.2 model=1 kva=0.2400025 pf=1.0 Phases=1
New Load.load_p6ulv19700_1 conn=wye bus1=p6ulv19700.1 kV=0.12 Vminpu=0.8 Vmaxpu=1.2 model=1 kva=0.725005 pf=1.0 Phases=1
New Load.load_p6ulv19700_2 conn=wye bus1=p6ulv19700.2 kV=0.12 Vminpu=0.8 Vmaxpu=1.2 model=1 kva=0.725005 pf=1.0 Phases=1
New Load.load_p6ulv19701_1 conn=wye bus1=p6ulv19701.1 kV=0.12 Vminpu=0.8 Vmaxpu=1.2 model=1 kva=0.3650035 pf=1.0 Phases=1
New Load.load_p6ulv19702_1 conn=wye bus1=p6ulv19702.1 kV=0.12 Vminpu=0.8 Vmaxpu=1.2 model=1 kva=0.3650035 pf=1.0 Phases=1
New Load.load_p6ulv19702_2 conn=wye bus1=p6ulv19702.2 kV=0.12 Vminpu=0.8 Vmaxpu=1.2 model=1 kva=0.3650035 pf=1.0 Phases=1
New Load.load_p6ulv19704_1 conn=wye bus1=p6ulv19704.1 kV=0.12 Vminpu=0.8 Vmaxpu=1.2 model=1 kva=0.96501 pf=1.0 Phases=1
New Load.load_p6ulv19704_2 conn=wye bus1=p6ulv19704.2 kV=0.12 Vminpu=0.8 Vmaxpu=1.2 model=1 kva=0.96501 pf=1.0 Phases=1
New Load.load_p6ulv19706_1 conn=wye bus1=p6ulv19706.1 kV=0.12 Vminpu=0.8 Vmaxpu=1.2 model=1 kva=0.76001 pf=1.0 Phases=1
New Load.load_p6ulv19706_2 conn=wye bus1=p6ulv19706.2 kV=0.12 Vminpu=0.8 Vmaxpu=1.2 model=1 kva=0.76001 pf=1.0 Phases=1
New Load.load_p6ulv19707_1 conn=wye bus1=p6ulv19707.1 kV=0.12 Vminpu=0.8 Vmaxpu=1.2 model=1 kva=0.94001 pf=1.0 Phases=1
New Load.load_p6ulv19707_2 conn=wye bus1=p6ulv19707.2 kV=0.12 Vminpu=0.8 Vmaxpu=1.2 model=1 kva=0.94001 pf=1.0 Phases=1
New Load.load_p6ulv19708_2 conn=wye bus1=p6ulv19708.2 kV=0.12 Vminpu=0.8 Vmaxpu=1.2 model=1 kva=0.4350045 pf=1.0 Phases=1
New Load.load_p6ulv19709_1 conn=wye bus1=p6ulv19709.1 kV=0.12 Vminpu=0.8 Vmaxpu=1.2 model=1 kva=0.280003 pf=1.0 Phases=1
New Load.load_p6ulv19709_2 conn=wye bus1=p6ulv19709.2 kV=0.12 Vminpu=0.8 Vmaxpu=1.2 model=1 kva=0.280003 pf=1.0 Phases=1
New Load.load_p6ulv19710_2 conn=wye bus1=p6ulv19710.2 kV=0.12 Vminpu=0.8 Vmaxpu=1.2 model=1 kva=0.390004 pf=1.0 Phases=1
New Load.load_p6ulv19711_1 conn=wye bus1=p6ulv19711.1 kV=0.12 Vminpu=0.8 Vmaxpu=1.2 model=1 kva=0.8600100000000002 pf=1.0 Phases=1
New Load.load_p6ulv19712_2 conn=wye bus1=p6ulv19712.2 kV=0.12 Vminpu=0.8 Vmaxpu=1.2 model=1 kva=0.600005 pf=1.0 Phases=1
New Load.load_p6ulv19713_1 conn=wye bus1=p6ulv19713.1 kV=0.12 Vminpu=0.8 Vmaxpu=1.2 model=1 kva=0.81501 pf=1.0 Phases=1
New Load.load_p6ulv19713_2 conn=wye bus1=p6ulv19713.2 kV=0.12 Vminpu=0.8 Vmaxpu=1.2 model=1 kva=0.81501 pf=1.0 Phases=1
New Load.load_p6ulv19714_1 conn=wye bus1=p6ulv19714.1 kV=0.12 Vminpu=0.8 Vmaxpu=1.2 model=1 kva=1.625015 pf=1.0 Phases=1
New Load.load_p6ulv19716_1 conn=wye bus1=p6ulv19716.1 kV=0.12 Vminpu=0.8 Vmaxpu=1.2 model=1 kva=1.08001 pf=1.0 Phases=1
New Load.load_p6ulv19716_2 conn=wye bus1=p6ulv19716.2 kV=0.12 Vminpu=0.8 Vmaxpu=1.2 model=1 kva=1.08001 pf=1.0 Phases=1
New Load.load_p6ulv19717_1 conn=wye bus1=p6ulv19717.1 kV=0.12 Vminpu=0.8 Vmaxpu=1.2 model=1 kva=1.605015 pf=1.0 Phases=1
New Load.load_p6ulv19717_2 conn=wye bus1=p6ulv19717.2 kV=0.12 Vminpu=0.8 Vmaxpu=1.2 model=1 kva=1.605015 pf=1.0 Phases=1
New Load.load_p6ulv19718_1 conn=wye bus1=p6ulv19718.1 kV=0.12 Vminpu=0.8 Vmaxpu=1.2 model=1 kva=4.02004 pf=1.0 Phases=1
New Load.load_p6ulv19718_2 conn=wye bus1=p6ulv19718.2 kV=0.12 Vminpu=0.8 Vmaxpu=1.2 model=1 kva=4.02004 pf=1.0 Phases=1
New Load.load_p6ulv19720_1 conn=wye bus1=p6ulv19720.1 kV=0.12 Vminpu=0.8 Vmaxpu=1.2 model=1 kva=3.88004 pf=1.0 Phases=1
New Load.load_p6ulv19720_2 conn=wye bus1=p6ulv19720.2 kV=0.12 Vminpu=0.8 Vmaxpu=1.2 model=1 kva=3.88004 pf=1.0 Phases=1
New Load.load_p6ulv19721_2 conn=wye bus1=p6ulv19721.2 kV=0.12 Vminpu=0.8 Vmaxpu=1.2 model=1 kva=4.80505 pf=1.0 Phases=1
New Load.load_p6ulv19722_2 conn=wye bus1=p6ulv19722.2 kV=0.12 Vminpu=0.8 Vmaxpu=1.2 model=1 kva=4.355045 pf=1.0 Phases=1
New Load.load_p6ulv19723_2 conn=wye bus1=p6ulv19723.2 kV=0.12 Vminpu=0.8 Vmaxpu=1.2 model=1 kva=0.590005 pf=1.0 Phases=1
New Load.load_p6ulv19725_2 conn=wye bus1=p6ulv19725.2 kV=0.12 Vminpu=0.8 Vmaxpu=1.2 model=1 kva=0.280003 pf=1.0 Phases=1
New Load.load_p6ulv19726_1 conn=wye bus1=p6ulv19726.1 kV=0.12 Vminpu=0.8 Vmaxpu=1.2 model=1 kva=1.07501 pf=1.0 Phases=1
New Load.load_p6ulv19726_2 conn=wye bus1=p6ulv19726.2 kV=0.12 Vminpu=0.8 Vmaxpu=1.2 model=1 kva=1.07501 pf=1.0 Phases=1
New Load.load_p6ulv19727_2 conn=wye bus1=p6ulv19727.2 kV=0.12 Vminpu=0.8 Vmaxpu=1.2 model=1 kva=1.20501 pf=1.0 Phases=1
New Load.load_p6ulv19728_2 conn=wye bus1=p6ulv19728.2 kV=0.12 Vminpu=0.8 Vmaxpu=1.2 model=1 kva=1.81502 pf=1.0 Phases=1
New Load.load_p6ulv19729_2 conn=wye bus1=p6ulv19729.2 kV=0.12 Vminpu=0.8 Vmaxpu=1.2 model=1 kva=1.545015 pf=1.0 Phases=1
New Load.load_p6ulv19731_1 conn=wye bus1=p6ulv19731.1 kV=0.12 Vminpu=0.8 Vmaxpu=1.2 model=1 kva=1.10001 pf=1.0 Phases=1
New Load.load_p6ulv19732_1 conn=wye bus1=p6ulv19732.1 kV=0.12 Vminpu=0.8 Vmaxpu=1.2 model=1 kva=0.97001 pf=1.0 Phases=1
New Load.load_p6ulv19732_2 conn=wye bus1=p6ulv19732.2 kV=0.12 Vminpu=0.8 Vmaxpu=1.2 model=1 kva=0.97001 pf=1.0 Phases=1
New Load.load_p6ulv19733_2 conn=wye bus1=p6ulv19733.2 kV=0.12 Vminpu=0.8 Vmaxpu=1.2 model=1 kva=0.85001 pf=1.0 Phases=1
New Load.load_p6ulv19734_2 conn=wye bus1=p6ulv19734.2 kV=0.12 Vminpu=0.8 Vmaxpu=1.2 model=1 kva=0.730005 pf=1.0 Phases=1
New Load.load_p6ulv19735_1 conn=wye bus1=p6ulv19735.1 kV=0.12 Vminpu=0.8 Vmaxpu=1.2 model=1 kva=0.710005 pf=1.0 Phases=1
New Load.load_p6ulv19736_2 conn=wye bus1=p6ulv19736.2 kV=0.12 Vminpu=0.8 Vmaxpu=1.2 model=1 kva=0.3250035 pf=1.0 Phases=1
New Load.load_p6ulv19737_1 conn=wye bus1=p6ulv19737.1 kV=0.12 Vminpu=0.8 Vmaxpu=1.2 model=1 kva=0.375004 pf=1.0 Phases=1
New Load.load_p6ulv19737_2 conn=wye bus1=p6ulv19737.2 kV=0.12 Vminpu=0.8 Vmaxpu=1.2 model=1 kva=0.375004 pf=1.0 Phases=1
New Load.load_p6ulv22235_1 conn=wye bus1=p6ulv22235.1 kV=0.12 Vminpu=0.8 Vmaxpu=1.2 model=1 kva=0.680005 pf=1.0 Phases=1
New Load.load_p6ulv22235_2 conn=wye bus1=p6ulv22235.2 kV=0.12 Vminpu=0.8 Vmaxpu=1.2 model=1 kva=0.680005 pf=1.0 Phases=1
New Load.load_p6ulv22236_1 conn=wye bus1=p6ulv22236.1 kV=0.12 Vminpu=0.8 Vmaxpu=1.2 model=1 kva=0.595005 pf=1.0 Phases=1
New Load.load_p6ulv22236_2 conn=wye bus1=p6ulv22236.2 kV=0.12 Vminpu=0.8 Vmaxpu=1.2 model=1 kva=0.595005 pf=1.0 Phases=1
New Load.load_p6ulv22237_1 conn=wye bus1=p6ulv22237.1 kV=0.12 Vminpu=0.8 Vmaxpu=1.2 model=1 kva=0.49500500000000003 pf=1.0 Phases=1
New Load.load_p6ulv22237_2 conn=wye bus1=p6ulv22237.2 kV=0.12 Vminpu=0.8 Vmaxpu=1.2 model=1 kva=0.49500500000000003 pf=1.0 Phases=1
New Load.load_p6ulv22238_1 conn=wye bus1=p6ulv22238.1 kV=0.12 Vminpu=0.8 Vmaxpu=1.2 model=1 kva=0.94501 pf=1.0 Phases=1
New Load.load_p6ulv22238_2 conn=wye bus1=p6ulv22238.2 kV=0.12 Vminpu=0.8 Vmaxpu=1.2 model=1 kva=0.94501 pf=1.0 Phases=1
New Load.load_p6ulv22239_1 conn=wye bus1=p6ulv22239.1 kV=0.12 Vminpu=0.8 Vmaxpu=1.2 model=1 kva=1.520015 pf=1.0 Phases=1
New Load.load_p6ulv22240_2 conn=wye bus1=p6ulv22240.2 kV=0.12 Vminpu=0.8 Vmaxpu=1.2 model=1 kva=1.11501 pf=1.0 Phases=1
New Load.load_p6ulv22241_1 conn=wye bus1=p6ulv22241.1 kV=0.12 Vminpu=0.8 Vmaxpu=1.2 model=1 kva=0.645005 pf=1.0 Phases=1
New Load.load_p6ulv22241_2 conn=wye bus1=p6ulv22241.2 kV=0.12 Vminpu=0.8 Vmaxpu=1.2 model=1 kva=0.645005 pf=1.0 Phases=1
New Load.load_p6ulv22242_1 conn=wye bus1=p6ulv22242.1 kV=0.12 Vminpu=0.8 Vmaxpu=1.2 model=1 kva=1.01501 pf=1.0 Phases=1
New Load.load_p6ulv22242_2 conn=wye bus1=p6ulv22242.2 kV=0.12 Vminpu=0.8 Vmaxpu=1.2 model=1 kva=1.01501 pf=1.0 Phases=1
New Load.load_p6ulv22243_1 conn=wye bus1=p6ulv22243.1 kV=0.12 Vminpu=0.8 Vmaxpu=1.2 model=1 kva=0.585005 pf=1.0 Phases=1
New Load.load_p6ulv22244_1 conn=wye bus1=p6ulv22244.1 kV=0.12 Vminpu=0.8 Vmaxpu=1.2 model=1 kva=0.9850100000000002 pf=1.0 Phases=1
New Load.load_p6ulv22244_2 conn=wye bus1=p6ulv22244.2 kV=0.12 Vminpu=0.8 Vmaxpu=1.2 model=1 kva=0.9850100000000002 pf=1.0 Phases=1
New Load.load_p6ulv22245_2 conn=wye bus1=p6ulv22245.2 kV=0.12 Vminpu=0.8 Vmaxpu=1.2 model=1 kva=0.2700025 pf=1.0 Phases=1
New Load.load_p6ulv22246_1 conn=wye bus1=p6ulv22246.1 kV=0.12 Vminpu=0.8 Vmaxpu=1.2 model=1 kva=1.82502 pf=1.0 Phases=1
New Load.load_p6ulv22246_2 conn=wye bus1=p6ulv22246.2 kV=0.12 Vminpu=0.8 Vmaxpu=1.2 model=1 kva=1.82502 pf=1.0 Phases=1
New Load.load_p6ulv22247_2 conn=wye bus1=p6ulv22247.2 kV=0.12 Vminpu=0.8 Vmaxpu=1.2 model=1 kva=0.560005 pf=1.0 Phases=1
New Load.load_p6ulv22248_1 conn=wye bus1=p6ulv22248.1 kV=0.12 Vminpu=0.8 Vmaxpu=1.2 model=1 kva=0.685005 pf=1.0 Phases=1
New Load.load_p6ulv22249_1 conn=wye bus1=p6ulv22249.1 kV=0.12 Vminpu=0.8 Vmaxpu=1.2 model=1 kva=1.17001 pf=1.0 Phases=1
New Load.load_p6ulv22249_2 conn=wye bus1=p6ulv22249.2 kV=0.12 Vminpu=0.8 Vmaxpu=1.2 model=1 kva=1.17001 pf=1.0 Phases=1
New Load.load_p6ulv22250_1 conn=wye bus1=p6ulv22250.1 kV=0.12 Vminpu=0.8 Vmaxpu=1.2 model=1 kva=0.3500035 pf=1.0 Phases=1
New Load.load_p6ulv22250_2 conn=wye bus1=p6ulv22250.2 kV=0.12 Vminpu=0.8 Vmaxpu=1.2 model=1 kva=0.3500035 pf=1.0 Phases=1
New Load.load_p6ulv22251_1 conn=wye bus1=p6ulv22249.1 kV=0.12 Vminpu=0.8 Vmaxpu=1.2 model=1 kva=1.22501 pf=1.0 Phases=1
New Load.load_p6ulv22251_2 conn=wye bus1=p6ulv22249.2 kV=0.12 Vminpu=0.8 Vmaxpu=1.2 model=1 kva=1.22501 pf=1.0 Phases=1
New Load.load_p6ulv22252_1 conn=wye bus1=p6ulv22252.1 kV=0.12 Vminpu=0.8 Vmaxpu=1.2 model=1 kva=0.4750045 pf=1.0 Phases=1
New Load.load_p6ulv22253_2 conn=wye bus1=p6ulv22253.2 kV=0.12 Vminpu=0.8 Vmaxpu=1.2 model=1 kva=0.520005 pf=1.0 Phases=1
New Load.load_p6ulv22338_1 conn=wye bus1=p6ulv22338.1 kV=0.12 Vminpu=0.8 Vmaxpu=1.2 model=1 kva=1.04001 pf=1.0 Phases=1
New Load.load_p6ulv22339_1 conn=wye bus1=p6ulv22339.1 kV=0.12 Vminpu=0.8 Vmaxpu=1.2 model=1 kva=1.350015 pf=1.0 Phases=1
New Load.load_p6ulv22339_2 conn=wye bus1=p6ulv22339.2 kV=0.12 Vminpu=0.8 Vmaxpu=1.2 model=1 kva=1.350015 pf=1.0 Phases=1
New Load.load_p6ulv22340_1 conn=wye bus1=p6ulv22340.1 kV=0.12 Vminpu=0.8 Vmaxpu=1.2 model=1 kva=1.14001 pf=1.0 Phases=1
New Load.load_p6ulv22341_1 conn=wye bus1=p6ulv22341.1 kV=0.12 Vminpu=0.8 Vmaxpu=1.2 model=1 kva=0.545005 pf=1.0 Phases=1
New Load.load_p6ulv22341_2 conn=wye bus1=p6ulv22341.2 kV=0.12 Vminpu=0.8 Vmaxpu=1.2 model=1 kva=0.545005 pf=1.0 Phases=1
New Load.load_p6ulv22342_2 conn=wye bus1=p6ulv22342.2 kV=0.12 Vminpu=0.8 Vmaxpu=1.2 model=1 kva=1.09001 pf=1.0 Phases=1
New Load.load_p6ulv22343_2 conn=wye bus1=p6ulv22343.2 kV=0.12 Vminpu=0.8 Vmaxpu=1.2 model=1 kva=1.445015 pf=1.0 Phases=1
New Load.load_p6ulv22344_1 conn=wye bus1=p6ulv22344.1 kV=0.12 Vminpu=0.8 Vmaxpu=1.2 model=1 kva=0.8650100000000001 pf=1.0 Phases=1
New Load.load_p6ulv22344_2 conn=wye bus1=p6ulv22344.2 kV=0.12 Vminpu=0.8 Vmaxpu=1.2 model=1 kva=0.8650100000000001 pf=1.0 Phases=1
New Load.load_p6ulv22345_1 conn=wye bus1=p6ulv22345.1 kV=0.12 Vminpu=0.8 Vmaxpu=1.2 model=1 kva=1.270015 pf=1.0 Phases=1
New Load.load_p6ulv22346_1 conn=wye bus1=p6ulv22346.1 kV=0.12 Vminpu=0.8 Vmaxpu=1.2 model=1 kva=0.3700035 pf=1.0 Phases=1
New Load.load_p6ulv22346_2 conn=wye bus1=p6ulv22346.2 kV=0.12 Vminpu=0.8 Vmaxpu=1.2 model=1 kva=0.3700035 pf=1.0 Phases=1
New Load.load_p6ulv22347_1 conn=wye bus1=p6ulv22347.1 kV=0.12 Vminpu=0.8 Vmaxpu=1.2 model=1 kva=0.610005 pf=1.0 Phases=1
New Load.load_p6ulv22348_1 conn=wye bus1=p6ulv22348.1 kV=0.12 Vminpu=0.8 Vmaxpu=1.2 model=1 kva=1.03001 pf=1.0 Phases=1
New Load.load_p6ulv22349_2 conn=wye bus1=p6ulv22349.2 kV=0.12 Vminpu=0.8 Vmaxpu=1.2 model=1 kva=0.78001 pf=1.0 Phases=1
New Load.load_p6ulv22350_1 conn=wye bus1=p6ulv22350.1 kV=0.12 Vminpu=0.8 Vmaxpu=1.2 model=1 kva=1.475015 pf=1.0 Phases=1
New Load.load_p6ulv22351_1 conn=wye bus1=p6ulv22351.1 kV=0.12 Vminpu=0.8 Vmaxpu=1.2 model=1 kva=0.3450035 pf=1.0 Phases=1
New Load.load_p6ulv22351_2 conn=wye bus1=p6ulv22351.2 kV=0.12 Vminpu=0.8 Vmaxpu=1.2 model=1 kva=0.3450035 pf=1.0 Phases=1
New Load.load_p6ulv22352_1 conn=wye bus1=p6ulv22352.1 kV=0.12 Vminpu=0.8 Vmaxpu=1.2 model=1 kva=0.97501 pf=1.0 Phases=1
New Load.load_p6ulv22352_2 conn=wye bus1=p6ulv22352.2 kV=0.12 Vminpu=0.8 Vmaxpu=1.2 model=1 kva=0.97501 pf=1.0 Phases=1
New Load.load_p6ulv22353_1 conn=wye bus1=p6ulv22353.1 kV=0.12 Vminpu=0.8 Vmaxpu=1.2 model=1 kva=1.75002 pf=1.0 Phases=1
New Load.load_p6ulv22353_2 conn=wye bus1=p6ulv22353.2 kV=0.12 Vminpu=0.8 Vmaxpu=1.2 model=1 kva=1.75002 pf=1.0 Phases=1
New Load.load_p6ulv22354_1 conn=wye bus1=p6ulv22354.1 kV=0.12 Vminpu=0.8 Vmaxpu=1.2 model=1 kva=0.535005 pf=1.0 Phases=1
New Load.load_p6ulv22355_1 conn=wye bus1=p6ulv22355.1 kV=0.12 Vminpu=0.8 Vmaxpu=1.2 model=1 kva=0.665005 pf=1.0 Phases=1
New Load.load_p6ulv22355_2 conn=wye bus1=p6ulv22355.2 kV=0.12 Vminpu=0.8 Vmaxpu=1.2 model=1 kva=0.665005 pf=1.0 Phases=1
New Load.load_p6ulv22356_2 conn=wye bus1=p6ulv22356.2 kV=0.12 Vminpu=0.8 Vmaxpu=1.2 model=1 kva=0.635005 pf=1.0 Phases=1
New Load.load_p6ulv22357_1 conn=wye bus1=p6ulv22357.1 kV=0.12 Vminpu=0.8 Vmaxpu=1.2 model=1 kva=1.03001 pf=1.0 Phases=1
New Load.load_p6ulv22358_1 conn=wye bus1=p6ulv22358.1 kV=0.12 Vminpu=0.8 Vmaxpu=1.2 model=1 kva=1.8550200000000001 pf=1.0 Phases=1
New Load.load_p6ulv22358_2 conn=wye bus1=p6ulv22358.2 kV=0.12 Vminpu=0.8 Vmaxpu=1.2 model=1 kva=1.8550200000000001 pf=1.0 Phases=1
New Load.load_p6ulv22359_1 conn=wye bus1=p6ulv22359.1 kV=0.12 Vminpu=0.8 Vmaxpu=1.2 model=1 kva=1.320015 pf=1.0 Phases=1
New Load.load_p6ulv22359_2 conn=wye bus1=p6ulv22359.2 kV=0.12 Vminpu=0.8 Vmaxpu=1.2 model=1 kva=1.320015 pf=1.0 Phases=1
New Load.load_p6ulv22360_1 conn=wye bus1=p6ulv22360.1 kV=0.12 Vminpu=0.8 Vmaxpu=1.2 model=1 kva=1.13501 pf=1.0 Phases=1
New Load.load_p6ulv22360_2 conn=wye bus1=p6ulv22360.2 kV=0.12 Vminpu=0.8 Vmaxpu=1.2 model=1 kva=1.13501 pf=1.0 Phases=1
New Load.load_p6ulv22361_1 conn=wye bus1=p6ulv22361.1 kV=0.12 Vminpu=0.8 Vmaxpu=1.2 model=1 kva=1.11001 pf=1.0 Phases=1
New Load.load_p6ulv22361_2 conn=wye bus1=p6ulv22361.2 kV=0.12 Vminpu=0.8 Vmaxpu=1.2 model=1 kva=1.11001 pf=1.0 Phases=1
New Load.load_p6ulv22362_1 conn=wye bus1=p6ulv22362.1 kV=0.12 Vminpu=0.8 Vmaxpu=1.2 model=1 kva=0.740005 pf=1.0 Phases=1
New Load.load_p6ulv22363_1 conn=wye bus1=p6ulv22363.1 kV=0.12 Vminpu=0.8 Vmaxpu=1.2 model=1 kva=0.4500045 pf=1.0 Phases=1
New Load.load_p6ulv22363_2 conn=wye bus1=p6ulv22363.2 kV=0.12 Vminpu=0.8 Vmaxpu=1.2 model=1 kva=0.4500045 pf=1.0 Phases=1
New Load.load_p6ulv22364_1 conn=wye bus1=p6ulv22364.1 kV=0.12 Vminpu=0.8 Vmaxpu=1.2 model=1 kva=0.690005 pf=1.0 Phases=1
New Load.load_p6ulv22364_2 conn=wye bus1=p6ulv22364.2 kV=0.12 Vminpu=0.8 Vmaxpu=1.2 model=1 kva=0.690005 pf=1.0 Phases=1
New Load.load_p6ulv22365_1 conn=wye bus1=p6ulv22365.1 kV=0.12 Vminpu=0.8 Vmaxpu=1.2 model=1 kva=0.305003 pf=1.0 Phases=1
New Load.load_p6ulv22365_2 conn=wye bus1=p6ulv22365.2 kV=0.12 Vminpu=0.8 Vmaxpu=1.2 model=1 kva=0.305003 pf=1.0 Phases=1
New Load.load_p6ulv22367_1 conn=wye bus1=p6ulv22367.1 kV=0.12 Vminpu=0.8 Vmaxpu=1.2 model=1 kva=0.88501 pf=1.0 Phases=1
New Load.load_p6ulv22367_2 conn=wye bus1=p6ulv22367.2 kV=0.12 Vminpu=0.8 Vmaxpu=1.2 model=1 kva=0.88501 pf=1.0 Phases=1
New Load.load_p6ulv22368_1 conn=wye bus1=p6ulv22368.1 kV=0.12 Vminpu=0.8 Vmaxpu=1.2 model=1 kva=0.88501 pf=1.0 Phases=1
New Load.load_p6ulv22368_2 conn=wye bus1=p6ulv22368.2 kV=0.12 Vminpu=0.8 Vmaxpu=1.2 model=1 kva=0.88501 pf=1.0 Phases=1
New Load.load_p6ulv22377_1 conn=wye bus1=p6ulv22377.1 kV=0.12 Vminpu=0.8 Vmaxpu=1.2 model=1 kva=1.20001 pf=1.0 Phases=1
New Load.load_p6ulv22377_2 conn=wye bus1=p6ulv22377.2 kV=0.12 Vminpu=0.8 Vmaxpu=1.2 model=1 kva=1.20001 pf=1.0 Phases=1
New Load.load_p6ulv22385_1 conn=wye bus1=p6ulv22385.1 kV=0.12 Vminpu=0.8 Vmaxpu=1.2 model=1 kva=0.96001 pf=1.0 Phases=1
New Load.load_p6ulv22385_2 conn=wye bus1=p6ulv22385.2 kV=0.12 Vminpu=0.8 Vmaxpu=1.2 model=1 kva=0.96001 pf=1.0 Phases=1
New Load.load_p6ulv22386_1 conn=wye bus1=p6ulv22386.1 kV=0.12 Vminpu=0.8 Vmaxpu=1.2 model=1 kva=0.575005 pf=1.0 Phases=1
New Load.load_p6ulv22386_2 conn=wye bus1=p6ulv22386.2 kV=0.12 Vminpu=0.8 Vmaxpu=1.2 model=1 kva=0.575005 pf=1.0 Phases=1
New Load.load_p6ulv22387_1 conn=wye bus1=p6ulv22387.1 kV=0.12 Vminpu=0.8 Vmaxpu=1.2 model=1 kva=0.78501 pf=1.0 Phases=1
New Load.load_p6ulv22409_2 conn=wye bus1=p6ulv22409.2 kV=0.12 Vminpu=0.8 Vmaxpu=1.2 model=1 kva=0.92501 pf=1.0 Phases=1
New Load.load_p6ulv22410_2 conn=wye bus1=p6ulv22410.2 kV=0.12 Vminpu=0.8 Vmaxpu=1.2 model=1 kva=0.490005 pf=1.0 Phases=1
New Load.load_p6ulv22411_2 conn=wye bus1=p6ulv22411.2 kV=0.12 Vminpu=0.8 Vmaxpu=1.2 model=1 kva=0.3700035 pf=1.0 Phases=1
New Load.load_p6ulv22412_1 conn=wye bus1=p6ulv22412.1 kV=0.12 Vminpu=0.8 Vmaxpu=1.2 model=1 kva=0.640005 pf=1.0 Phases=1
New Load.load_p6ulv22412_2 conn=wye bus1=p6ulv22412.2 kV=0.12 Vminpu=0.8 Vmaxpu=1.2 model=1 kva=0.640005 pf=1.0 Phases=1
New Load.load_p6ulv22413_2 conn=wye bus1=p6ulv22413.2 kV=0.12 Vminpu=0.8 Vmaxpu=1.2 model=1 kva=1.580015 pf=1.0 Phases=1
New Load.load_p6ulv22414_2 conn=wye bus1=p6ulv22414.2 kV=0.12 Vminpu=0.8 Vmaxpu=1.2 model=1 kva=1.18001 pf=1.0 Phases=1
New Load.load_p6ulv22415_1 conn=wye bus1=p6ulv22415.1 kV=0.12 Vminpu=0.8 Vmaxpu=1.2 model=1 kva=0.95501 pf=1.0 Phases=1
New Load.load_p6ulv22415_2 conn=wye bus1=p6ulv22415.2 kV=0.12 Vminpu=0.8 Vmaxpu=1.2 model=1 kva=0.95501 pf=1.0 Phases=1
New Load.load_p6ulv22416_1 conn=wye bus1=p6ulv22416.1 kV=0.12 Vminpu=0.8 Vmaxpu=1.2 model=1 kva=0.380004 pf=1.0 Phases=1
New Load.load_p6ulv22416_2 conn=wye bus1=p6ulv22416.2 kV=0.12 Vminpu=0.8 Vmaxpu=1.2 model=1 kva=0.380004 pf=1.0 Phases=1
New Load.load_p6ulv22417_1 conn=wye bus1=p6ulv22417.1 kV=0.12 Vminpu=0.8 Vmaxpu=1.2 model=1 kva=0.3500035 pf=1.0 Phases=1
New Load.load_p6ulv22418_1 conn=wye bus1=p6ulv22418.1 kV=0.12 Vminpu=0.8 Vmaxpu=1.2 model=1 kva=0.93501 pf=1.0 Phases=1
New Load.load_p6ulv22418_2 conn=wye bus1=p6ulv22418.2 kV=0.12 Vminpu=0.8 Vmaxpu=1.2 model=1 kva=0.93501 pf=1.0 Phases=1
New Load.load_p6ulv22419_1 conn=wye bus1=p6ulv22419.1 kV=0.12 Vminpu=0.8 Vmaxpu=1.2 model=1 kva=0.76501 pf=1.0 Phases=1
New Load.load_p6ulv22419_2 conn=wye bus1=p6ulv22419.2 kV=0.12 Vminpu=0.8 Vmaxpu=1.2 model=1 kva=0.76501 pf=1.0 Phases=1
New Load.load_p6ulv22420_1 conn=wye bus1=p6ulv22420.1 kV=0.12 Vminpu=0.8 Vmaxpu=1.2 model=1 kva=0.2300025 pf=1.0 Phases=1
New Load.load_p6ulv22420_2 conn=wye bus1=p6ulv22420.2 kV=0.12 Vminpu=0.8 Vmaxpu=1.2 model=1 kva=0.2300025 pf=1.0 Phases=1
New Load.load_p6ulv22421_1 conn=wye bus1=p6ulv22421.1 kV=0.12 Vminpu=0.8 Vmaxpu=1.2 model=1 kva=0.80001 pf=1.0 Phases=1
New Load.load_p6ulv22421_2 conn=wye bus1=p6ulv22421.2 kV=0.12 Vminpu=0.8 Vmaxpu=1.2 model=1 kva=0.80001 pf=1.0 Phases=1
New Load.load_p6ulv22423_2 conn=wye bus1=p6ulv22423.2 kV=0.12 Vminpu=0.8 Vmaxpu=1.2 model=1 kva=1.22001 pf=1.0 Phases=1
New Load.load_p6ulv22424_1 conn=wye bus1=p6ulv22424.1 kV=0.12 Vminpu=0.8 Vmaxpu=1.2 model=1 kva=0.2700025 pf=1.0 Phases=1
New Load.load_p6ulv22424_2 conn=wye bus1=p6ulv22424.2 kV=0.12 Vminpu=0.8 Vmaxpu=1.2 model=1 kva=0.2700025 pf=1.0 Phases=1
New Load.load_p6ulv22425_1 conn=wye bus1=p6ulv22425.1 kV=0.12 Vminpu=0.8 Vmaxpu=1.2 model=1 kva=0.510005 pf=1.0 Phases=1
New Load.load_p6ulv22425_2 conn=wye bus1=p6ulv22425.2 kV=0.12 Vminpu=0.8 Vmaxpu=1.2 model=1 kva=0.510005 pf=1.0 Phases=1
New Load.load_p6ulv22426_1 conn=wye bus1=p6ulv22426.1 kV=0.12 Vminpu=0.8 Vmaxpu=1.2 model=1 kva=0.77001 pf=1.0 Phases=1
New Load.load_p6ulv22427_1 conn=wye bus1=p6ulv22427.1 kV=0.12 Vminpu=0.8 Vmaxpu=1.2 model=1 kva=0.415004 pf=1.0 Phases=1
New Load.load_p6ulv22427_2 conn=wye bus1=p6ulv22427.2 kV=0.12 Vminpu=0.8 Vmaxpu=1.2 model=1 kva=0.415004 pf=1.0 Phases=1
New Load.load_p6ulv22428_1 conn=wye bus1=p6ulv22428.1 kV=0.12 Vminpu=0.8 Vmaxpu=1.2 model=1 kva=0.675005 pf=1.0 Phases=1
New Load.load_p6ulv22428_2 conn=wye bus1=p6ulv22428.2 kV=0.12 Vminpu=0.8 Vmaxpu=1.2 model=1 kva=0.675005 pf=1.0 Phases=1
New Load.load_p6ulv22429_1 conn=wye bus1=p6ulv22429.1 kV=0.12 Vminpu=0.8 Vmaxpu=1.2 model=1 kva=0.405004 pf=1.0 Phases=1
New Load.load_p6ulv22429_2 conn=wye bus1=p6ulv22429.2 kV=0.12 Vminpu=0.8 Vmaxpu=1.2 model=1 kva=0.405004 pf=1.0 Phases=1
New Load.load_p6ulv22430_1 conn=wye bus1=p6ulv22430.1 kV=0.12 Vminpu=0.8 Vmaxpu=1.2 model=1 kva=0.725005 pf=1.0 Phases=1
New Load.load_p6ulv22430_2 conn=wye bus1=p6ulv22430.2 kV=0.12 Vminpu=0.8 Vmaxpu=1.2 model=1 kva=0.725005 pf=1.0 Phases=1
New Load.load_p6ulv22431_1 conn=wye bus1=p6ulv22431.1 kV=0.12 Vminpu=0.8 Vmaxpu=1.2 model=1 kva=0.84501 pf=1.0 Phases=1
New Load.load_p6ulv22432_1 conn=wye bus1=p6ulv22432.1 kV=0.12 Vminpu=0.8 Vmaxpu=1.2 model=1 kva=0.4450045 pf=1.0 Phases=1
New Load.load_p6ulv22433_2 conn=wye bus1=p6ulv22433.2 kV=0.12 Vminpu=0.8 Vmaxpu=1.2 model=1 kva=1.4000150000000002 pf=1.0 Phases=1