New Generator.pv_load_p6ulv12414_1 conn=wye bus1=p6ulv12414.1 kV=0.12 model=7 kW=0.3546812614765341 kvar=-0.0 Phases=1
New Generator.pv_load_p6ulv12415_1 conn=wye bus1=p6ulv12415.1 kV=0.12 model=7 kW=0.19687799228263936 kvar=-0.0 Phases=1
New Generator.pv_load_p6ulv12415_2 conn=wye bus1=p6ulv12415.2 kV=0.12 model=7 kW=0.19687799228263936 kvar=-0.0 Phases=1
New Generator.pv_load_p6ulv12416_2 conn=wye bus1=p6ulv12416.2 kV=0.12 model=7 kW=0.13075138753736748 kvar=-0.0 Phases=1
New Generator.pv_load_p6ulv12417_1 conn=wye bus1=p6ulv12417.1 kV=0.12 model=7 kW=0.40728335312380903 kvar=-0.0 Phases=1
New Generator.pv_load_p6ulv12418_1 conn=wye bus1=p6ulv12418.1 kV=0.12 model=7 kW=0.1698262609135085 kvar=-0.0 Phases=1
New Generator.pv_load_p6ulv12421_2 conn=wye bus1=p6ulv12421.2 kV=0.12 model=7 kW=0.4087862270887607 kvar=-0.0 Phases=1
New Generator.pv_load_p6ulv12422_1 conn=wye bus1=p6ulv12422.1 kV=0.12 model=7 kW=0.24346858807010738 kvar=-0.0 Phases=1
New Generator.pv_load_p6ulv12422_2 conn=wye bus1=p6ulv12422.2 kV=0.12 model=7 kW=0.24346858807010738 kvar=-0.0 Phases=1
New Generator.pv_load_p6ulv12423_1 conn=wye bus1=p6ulv12423.1 kV=0.12 model=7 kW=0.23294847031544538 kvar=-0.0 Phases=1
New Generator.pv_load_p6ulv12428_1 conn=wye bus1=p6ulv12428.1 kV=0.12 model=7 kW=0.2930634289135139 kvar=-0.0 Phases=1
New Generator.pv_load_p6ulv12429_2 conn=wye bus1=p6ulv12429.2 kV=0.12 model=7 kW=0.21942110175691504 kvar=-0.0 Phases=1
New Generator.pv_load_p6ulv12430_2 conn=wye bus1=p6ulv12430.2 kV=0.12 model=7 kW=0.1803463786681705 kvar=-0.0 Phases=1
New Generator.pv_load_p6ulv12434_1 conn=wye bus1=p6ulv12434.1 kV=0.12 model=7 kW=0.13826575736212604 kvar=-0.0 Phases=1
New Generator.pv_load_p6ulv12436_2 conn=wye bus1=p6ulv12436.2 kV=0.12 model=7 kW=0.2344513442803971 kvar=-0.0 Phases=1
New Generator.pv_load_p6ulv12439_1 conn=wye bus1=p6ulv12439.1 kV=0.12 model=7 kW=0.2539887058247694 kvar=-0.0 Phases=1
New Generator.pv_load_p6ulv19674_2 conn=wye bus1=p6ulv19674.2 kV=0.12 model=7 kW=0.3171094123527413 kvar=-0.0 Phases=1
New Generator.pv_load_p6ulv19675_1 conn=wye bus1=p6ulv19675.1 kV=0.12 model=7 kW=0.4448552022476019 kvar=-0.0 Phases=1
New Generator.pv_load_p6ulv19676_2 conn=wye bus1=p6ulv19676.2 kV=0.12 model=7 kW=0.1352600094322226 kvar=-0.0 Phases=1
New Generator.pv_load_p6ulv19681_1 conn=wye bus1=p6ulv19681.1 kV=0.12 model=7 kW=0.14427740350932938 kvar=-0.0 Phases=1
New Generator.pv_load_p6ulv19681_2 conn=wye bus1=p6ulv19681.2 kV=0.12 model=7 kW=0.14427740350932938 kvar=-0.0 Phases=1
New Generator.pv_load_p6ulv19684_1 conn=wye bus1=p6ulv19684.1 kV=0.12 model=7 kW=0.5710981181775107 kvar=-0.0 Phases=1
New Generator.pv_load_p6ulv19687_2 conn=wye bus1=p6ulv19687.2 kV=0.12 model=7 kW=0.07815019761447155 kvar=-0.0 Phases=1
New Generator.pv_load_p6ulv19693_1 conn=wye bus1=p6ulv19692.1 kV=0.12 model=7 kW=0.13676288339717432 kvar=-0.0 Phases=1
New Generator.pv_load_p6ulv19696_2 conn=wye bus1=p6ulv19696.2 kV=0.12 model=7 kW=0.24797720996496253 kvar=-0.0 Phases=1
New Generator.pv_load_p6ulv19697_1 conn=wye bus1=p6ulv19697.1 kV=0.12 model=7 kW=0.4208092188083745 kvar=-0.0 Phases=1
New Generator.pv_load_p6ulv19703_2 conn=wye bus1=p6ulv19703.2 kV=0.12 model=7 kW=0.11421962363550214 kvar=-0.0 Phases=1
New Generator.pv_load_p6ulv19704_1 conn=wye bus1=p6ulv19704.1 kV=0.12 model=7 kW=0.2900576809836105 kvar=-0.0 Phases=1
New Generator.pv_load_p6ulv19704_2 conn=wye bus1=p6ulv19704.2 kV=0.12 model=7 kW=0.2900576809836105 kvar=-0.0 Phases=1
New Generator.pv_load_p6ulv19708_2 conn=wye bus1=p6ulv19708.2 kV=0.12 model=7 kW=0.13075138753736748 kvar=-0.0 Phases=1
New Generator.pv_load_p6ulv19709_2 conn=wye bus1=p6ulv19709.2 kV=0.12 model=7 kW=0.08416184376167489 kvar=-0.0 Phases=1
New Generator.pv_load_p6ulv19715_1 conn=wye bus1=p6ulv19715.1 kV=0.12 model=7 kW=0.15329464729903966 kvar=-0.0 Phases=1
New Generator.pv_load_p6ulv19717_1 conn=wye bus1=p6ulv19717.1 kV=0.12 model=7 kW=0.4824270513713947 kvar=-0.0 Phases=1
New Generator.pv_load_p6ulv19718_1 conn=wye bus1=p6ulv19718.1 kV=0.12 model=7 kW=1.2083226908128968 kvar=-0.0 Phases=1
New Generator.pv_load_p6ulv19719_1 conn=wye bus1=p6ulv19719.1 kV=0.12 model=7 kW=0.6402303205652895 kvar=-0.0 Phases=1
New Generator.pv_load_p6ulv19720_2 conn=wye bus1=p6ulv19720.2 kV=0.12 model=7 kW=1.1662422197942488 kvar=-0.0 Phases=1
New Generator.pv_load_p6ulv19722_2 conn=wye bus1=p6ulv19722.2 kV=0.12 model=7 kW=1.3090167493386262 kvar=-0.0 Phases=1
New Generator.pv_load_p6ulv19724_2 conn=wye bus1=p6ulv19724.2 kV=0.12 model=7 kW=0.32011516028264475 kvar=-0.0 Phases=1
New Generator.pv_load_p6ulv19726_2 conn=wye bus1=p6ulv19726.2 kV=0.12 model=7 kW=0.3231209082125482 kvar=-0.0 Phases=1
New Generator.pv_load_p6ulv19728_1 conn=wye bus1=p6ulv19728.1 kV=0.12 model=7 kW=0.5455492607733315 kvar=-0.0 Phases=1
New Generator.pv_load_p6ulv19728_2 conn=wye bus1=p6ulv19728.2 kV=0.12 model=7 kW=0.5455492607733315 kvar=-0.0 Phases=1
New Generator.pv_load_p6ulv19730_2 conn=wye bus1=p6ulv19730.2 kV=0.12 model=7 kW=0.21942110175691504 kvar=-0.0 Phases=1
New Generator.pv_load_p6ulv19735_2 conn=wye bus1=p6ulv19735.2 kV=0.12 model=7 kW=0.21340960589710817 kvar=-0.0 Phases=1
New Generator.pv_load_p6ulv19736_2 conn=wye bus1=p6ulv19736.2 kV=0.12 model=7 kW=0.0976878597336368 kvar=-0.0 Phases=1
New Generator.pv_load_p6ulv22235_1 conn=wye bus1=p6ulv22235.1 kV=0.12 model=7 kW=0.2043923621073979 kvar=-0.0 Phases=1
New Generator.pv_load_p6ulv22235_2 conn=wye bus1=p6ulv22235.2 kV=0.12 model=7 kW=0.2043923621073979 kvar=-0.0 Phases=1
New Generator.pv_load_p6ulv22237_2 conn=wye bus1=p6ulv22237.2 kV=0.12 model=7 kW=0.14878602540418454 kvar=-0.0 Phases=1
New Generator.pv_load_p6ulv22241_1 conn=wye bus1=p6ulv22241.1 kV=0.12 model=7 kW=0.19387224435273592 kvar=-0.0 Phases=1
New Generator.pv_load_p6ulv22242_1 conn=wye bus1=p6ulv22242.1 kV=0.12 model=7 kW=0.3050864206331276 kvar=-0.0 Phases=1
New Generator.pv_load_p6ulv22244_1 conn=wye bus1=p6ulv22244.1 kV=0.12 model=7 kW=0.2960691768434174 kvar=-0.0 Phases=1
New Generator.pv_load_p6ulv22245_2 conn=wye bus1=p6ulv22245.2 kV=0.12 model=7 kW=0.08115594554437497 kvar=-0.0 Phases=1
New Generator.pv_load_p6ulv22250_1 conn=wye bus1=p6ulv22250.1 kV=0.12 model=7 kW=0.10520222955839537 kvar=-0.0 Phases=1
New Generator.pv_load_p6ulv22342_2 conn=wye bus1=p6ulv22342.2 kV=0.12 model=7 kW=0.32762953010740326 kvar=-0.0 Phases=1
New Generator.pv_load_p6ulv22345_1 conn=wye bus1=p6ulv22345.1 kV=0.12 model=7 kW=0.38173449571962986 kvar=-0.0 Phases=1
New Generator.pv_load_p6ulv22345_2 conn=wye bus1=p6ulv22345.2 kV=0.12 model=7 kW=0.38173449571962986 kvar=-0.0 Phases=1
New Generator.pv_load_p6ulv22347_2 conn=wye bus1=p6ulv22347.2 kV=0.12 model=7 kW=0.18335212659807393 kvar=-0.0 Phases=1
New Generator.pv_load_p6ulv22350_1 conn=wye bus1=p6ulv22350.1 kV=0.12 model=7 kW=0.44335232828265014 kvar=-0.0 Phases=1
New Generator.pv_load_p6ulv22354_1 conn=wye bus1=p6ulv22354.1 kV=0.12 model=7 kW=0.16080901712379822 kvar=-0.0 Phases=1
New Generator.pv_load_p6ulv22357_2 conn=wye bus1=p6ulv22357.2 kV=0.12 model=7 kW=0.30959504252798276 kvar=-0.0 Phases=1
New Generator.pv_load_p6ulv22359_2 conn=wye bus1=p6ulv22359.2 kV=0.12 model=7 kW=0.39676323536914704 kvar=-0.0 Phases=1
New Generator.pv_load_p6ulv22360_1 conn=wye bus1=p6ulv22360.1 kV=0.12 model=7 kW=0.34115539579196874 kvar=-0.0 Phases=1
New Generator.pv_load_p6ulv22376_1 conn=wye bus1=p6ulv22376.1 kV=0.12 model=7 kW=0.13976863132707776 kvar=-0.0 Phases=1
New Generator.pv_load_p6ulv22377_1 conn=wye bus1=p6ulv22377.1 kV=0.12 model=7 kW=0.360692757336341 kvar=-0.0 Phases=1
New Generator.pv_load_p6ulv22385_1 conn=wye bus1=p6ulv22385.1 kV=0.12 model=7 kW=0.28855480701865877 kvar=-0.0 Phases=1
New Generator.pv_load_p6ulv22386_2 conn=wye bus1=p6ulv22386.2 kV=0.12 model=7 kW=0.17283200884341193 kvar=-0.0 Phases=1
New Generator.pv_load_p6ulv22409_2 conn=wye bus1=p6ulv22409.2 kV=0.12 model=7 kW=0.27803468926399677 kvar=-0.0 Phases=1
New Generator.pv_load_p6ulv22412_1 conn=wye bus1=p6ulv22412.1 kV=0.12 model=7 kW=0.1923693703877842 kvar=-0.0 Phases=1
New Generator.pv_load_p6ulv22413_2 conn=wye bus1=p6ulv22413.2 kV=0.12 model=7 kW=0.4749126815466361 kvar=-0.0 Phases=1
New Generator.pv_load_p6ulv22414_1 conn=wye bus1=p6ulv22414.1 kV=0.12 model=7 kW=0.3546812614765341 kvar=-0.0 Phases=1
New Generator.pv_load_p6ulv22428_1 conn=wye bus1=p6ulv22428.1 kV=0.12 model=7 kW=0.20288948814244617 kvar=-0.0 Phases=1
New Generator.pv_load_p6ulv22429_2 conn=wye bus1=p6ulv22429.2 kV=0.12 model=7 kW=0.12173399346026069 kvar=-0.0 Phases=1
New Generator.pv_load_p6ulv22430_2 conn=wye bus1=p6ulv22430.2 kV=0.12 model=7 kW=0.21791822779196332 kvar=-0.0 Phases=1
New Generator.pv_load_p6ulv22431_1 conn=wye bus1=p6ulv22431.1 kV=0.12 model=7 kW=0.2539887058247694 kvar=-0.0 Phases=1
New Generator.pv_load_p6ulv22434_1 conn=wye bus1=p6ulv22434.1 kV=0.12 model=7 kW=0.4358379584578916 kvar=-0.0 Phases=1
New Generator.pv_load_p6ulv22441_2 conn=wye bus1=p6ulv22441.2 kV=0.12 model=7 kW=0.4448552022476019 kvar=-0.0 Phases=1
New Generator.pv_load_p6ulv22445_2 conn=wye bus1=p6ulv22445.2 kV=0.12 model=7 kW=0.12624261535511583 kvar=-0.0 Phases=1
New Generator.pv_load_p6ulv22449_2 conn=wye bus1=p6ulv22449.2 kV=0.12 model=7 kW=0.13976863132707776 kvar=-0.0 Phases=1
New Generator.pv_load_p6ulv22450_1 conn=wye bus1=p6ulv22450.1 kV=0.12 model=7 kW=0.35768700940643755 kvar=-0.0 Phases=1
New Generator.pv_load_p6ulv22451_1 conn=wye bus1=p6ulv22451.1 kV=0.12 model=7 kW=0.15479752126399138 kvar=-0.0 Phases=1
New Generator.pv_load_p6ulv22454_2 conn=wye bus1=p6ulv22454.2 kV=0.12 model=7 kW=0.3441611437218722 kvar=-0.0 Phases=1
New Generator.pv_load_p6ulv22455_1 conn=wye bus1=p6ulv22455.1 kV=0.12 model=7 kW=0.13676288339717432 kvar=-0.0 Phases=1
New Generator.pv_load_p6ulv22457_1 conn=wye bus1=p6ulv22457.1 kV=0.12 model=7 kW=0.11722537156540556 kvar=-0.0 Phases=1
New Generator.pv_load_p6ulv22459_1 conn=wye bus1=p6ulv22459.1 kV=0.12 model=7 kW=0.07965307157942327 kvar=-0.0 Phases=1
New Generator.pv_load_p6ulv22460_1 conn=wye bus1=p6ulv22460.1 kV=0.12 model=7 kW=0.1457802774742811 kvar=-0.0 Phases=1
New Generator.pv_load_p6ulv22461_1 conn=wye bus1=p6ulv22461.1 kV=0.12 model=7 kW=0.21942110175691504 kvar=-0.0 Phases=1
New Generator.pv_load_p6ulv22464_1 conn=wye bus1=p6ulv22464.1 kV=0.12 model=7 kW=0.4553753200022639 kvar=-0.0 Phases=1
New Generator.pv_load_p6ulv22465_2 conn=wye bus1=p6ulv22465.2 kV=0.12 model=7 kW=0.21190673193215645 kvar=-0.0 Phases=1
New Generator.pv_load_p6ulv22468_1 conn=wye bus1=p6ulv22468.1 kV=0.12 model=7 kW=0.24346858807010738 kvar=-0.0 Phases=1
New Generator.pv_load_p6ulv22469_1 conn=wye bus1=p6ulv22469.1 kV=0.12 model=7 kW=0.13075138753736748 kvar=-0.0 Phases=1
New Generator.pv_load_p6ulv22469_2 conn=wye bus1=p6ulv22469.2 kV=0.12 model=7 kW=0.13075138753736748 kvar=-0.0 Phases=1
New Generator.pv_load_p6ulv22471_2 conn=wye bus1=p6ulv22471.2 kV=0.12 model=7 kW=0.2043923621073979 kvar=-0.0 Phases=1
New Generator.pv_load_p6ulv22477_2 conn=wye bus1=p6ulv22477.2 kV=0.12 model=7 kW=0.20138661417749446 kvar=-0.0 Phases=1
New Generator.pv_load_p6ulv22484_2 conn=wye bus1=p6ulv22484.2 kV=0.12 model=7 kW=0.27352606736914165 kvar=-0.0 Phases=1
New Generator.pv_load_p6ulv22496_2 conn=wye bus1=p6ulv22496.2 kV=0.12 model=7 kW=0.1322542615023192 kvar=-0.0 Phases=1
New Generator.pv_load_p6ulv22498_2 conn=wye bus1=p6ulv22498.2 kV=0.12 model=7 kW=0.17132913487846022 kvar=-0.0 Phases=1
New Generator.pv_load_p6ulv22500_1 conn=wye bus1=p6ulv22500.1 kV=0.12 model=7 kW=0.308092168563031 kvar=-0.0 Phases=1
New Generator.pv_load_p6ulv22501_1 conn=wye bus1=p6ulv22501.1 kV=0.12 model=7 kW=0.1803463786681705 kvar=-0.0 Phases=1
New Generator.pv_load_p6ulv22501_2 conn=wye bus1=p6ulv22501.2 kV=0.12 model=7 kW=0.1803463786681705 kvar=-0.0 Phases=1
New Generator.pv_load_p6ulv22502_2 conn=wye bus1=p6ulv22502.2 kV=0.12 model=7 kW=0.19687799228263936 kvar=-0.0 Phases=1
New Generator.pv_load_p6ulv22504_2 conn=wye bus1=p6ulv22504.2 kV=0.12 model=7 kW=0.12624261535511583 kvar=-0.0 Phases=1
New Generator.pv_load_p6ulv22505_2 conn=wye bus1=p6ulv22505.2 kV=0.12 model=7 kW=0.19687799228263936 kvar=-0.0 Phases=1
New Generator.pv_load_p6ulv22506_2 conn=wye bus1=p6ulv22506.2 kV=0.12 model=7 kW=0.2584973277196246 kvar=-0.0 Phases=1
New Generator.pv_load_p6ulv22507_2 conn=wye bus1=p6ulv22507.2 kV=0.12 model=7 kW=0.4764155555115878 kvar=-0.0 Phases=1
New Generator.pv_load_p6ulv22508_1 conn=wye bus1=p6ulv22508.1 kV=0.12 model=7 kW=0.21340960589710817 kvar=-0.0 Phases=1
New Generator.pv_load_p6ulv22508_2 conn=wye bus1=p6ulv22508.2 kV=0.12 model=7 kW=0.21340960589710817 kvar=-0.0 Phases=1
New Generator.pv_load_p6ulv22515_1 conn=wye bus1=p6ulv22515.1 kV=0.12 model=7 kW=0.16231189108874994 kvar=-0.0 Phases=1
New Generator.pv_load_p6ulv22529_1 conn=wye bus1=p6ulv22529.1 kV=0.12 model=7 kW=0.35017263958167905 kvar=-0.0 Phases=1
New Generator.pv_load_p6ulv22529_2 conn=wye bus1=p6ulv22529.2 kV=0.12 model=7 kW=0.35017263958167905 kvar=-0.0 Phases=1
New Generator.pv_load_p6ulv22531_2 conn=wye bus1=p6ulv22531.2 kV=0.12 model=7 kW=0.0976878597336368 kvar=-0.0 Phases=1
New Generator.pv_load_p6ulv22534_1 conn=wye bus1=p6ulv22534.1 kV=0.12 model=7 kW=0.12473974139016412 kvar=-0.0 Phases=1
New Generator.pv_load_p6ulv22537_1 conn=wye bus1=p6ulv22537.1 kV=0.12 model=7 kW=0.42832358863313297 kvar=-0.0 Phases=1
New Generator.pv_load_p6ulv22540_2 conn=wye bus1=p6ulv22540.2 kV=0.12 model=7 kW=0.21340960589710817 kvar=-0.0 Phases=1
New Generator.pv_load_p6ulv22542_2 conn=wye bus1=p6ulv22542.2 kV=0.12 model=7 kW=0.27352606736914165 kvar=-0.0 Phases=1
New Generator.pv_load_p6ulv22545_1 conn=wye bus1=p6ulv22545.1 kV=0.12 model=7 kW=0.22543410049068682 kvar=-0.0 Phases=1
New Generator.pv_load_p6ulv22545_2 conn=wye bus1=p6ulv22545.2 kV=0.12 model=7 kW=0.22543410049068682 kvar=-0.0 Phases=1
New Generator.pv_load_p6ulv22547_2 conn=wye bus1=p6ulv22547.2 kV=0.12 model=7 kW=0.15329464729903966 kvar=-0.0 Phases=1
New Generator.pv_load_p6ulv22548_1 conn=wye bus1=p6ulv22548.1 kV=0.12 model=7 kW=0.3697100011260513 kvar=-0.0 Phases=1
New Generator.pv_load_p6ulv22550_1 conn=wye bus1=p6ulv22550.1 kV=0.12 model=7 kW=0.42682071466818133 kvar=-0.0 Phases=1
New Generator.pv_load_p6ulv22555_2 conn=wye bus1=p6ulv22555.2 kV=0.12 model=7 kW=0.16381476505370163 kvar=-0.0 Phases=1
New Generator.pv_load_p6ulv22558_1 conn=wye bus1=p6ulv22558.1 kV=0.12 model=7 kW=0.3621956313012927 kvar=-0.0 Phases=1
New Generator.pv_load_p6ulv22560_1 conn=wye bus1=p6ulv22560.1 kV=0.12 model=7 kW=0.16682051298360506 kvar=-0.0 Phases=1
New Generator.pv_load_p6ulv22562_2 conn=wye bus1=p6ulv22562.2 kV=0.12 model=7 kW=0.15329464729903966 kvar=-0.0 Phases=1
New Generator.pv_load_p6ulv22564_1 conn=wye bus1=p6ulv22564.1 kV=0.12 model=7 kW=0.23745709221030054 kvar=-0.0 Phases=1
New Generator.pv_load_p6ulv22565_1 conn=wye bus1=p6ulv22565.1 kV=0.12 model=7 kW=0.10369935559344366 kvar=-0.0 Phases=1
New Generator.pv_load_p6ulv22568_2 conn=wye bus1=p6ulv22568.2 kV=0.12 model=7 kW=0.12924851357241576 kvar=-0.0 Phases=1
New Generator.pv_load_p6ulv22569_1 conn=wye bus1=p6ulv22569.1 kV=0.12 model=7 kW=0.3141036644228379 kvar=-0.0 Phases=1
New Generator.pv_load_p6ulv22574_2 conn=wye bus1=p6ulv22574.2 kV=0.12 model=7 kW=0.22392972365177016 kvar=-0.0 Phases=1
New Generator.pv_load_p6ulv23361_1 conn=wye bus1=p6ulv23361.1 kV=0.12 model=7 kW=0.31109791649293445 kvar=-0.0 Phases=1
New Generator.pv_load_p6ulv23361_2 conn=wye bus1=p6ulv23361.2 kV=0.12 model=7 kW=0.31109791649293445 kvar=-0.0 Phases=1
New Generator.pv_load_p6ulv23364_2 conn=wye bus1=p6ulv23364.2 kV=0.12 model=7 kW=0.1352600094322226 kvar=-0.0 Phases=1
New Generator.pv_load_p6ulv23366_1 conn=wye bus1=p6ulv23366.1 kV=0.12 model=7 kW=0.18936362245788077 kvar=-0.0 Phases=1
New Generator.pv_load_p6ulv23370_2 conn=wye bus1=p6ulv23370.2 kV=0.12 model=7 kW=0.12624261535511583 kvar=-0.0 Phases=1
New Generator.pv_load_p6ulv23372_1 conn=wye bus1=p6ulv23372.1 kV=0.12 model=7 kW=0.18936362245788077 kvar=-0.0 Phases=1
New Generator.pv_load_p6ulv23372_2 conn=wye bus1=p6ulv23372.2 kV=0.12 model=7 kW=0.18936362245788077 kvar=-0.0 Phases=1
New Generator.pv_load_p6ulv23373_1 conn=wye bus1=p6ulv23373.1 kV=0.12 model=7 kW=0.2810404371939002 kvar=-0.0 Phases=1
New Generator.pv_load_p6ulv23377_1 conn=wye bus1=p6ulv23377.1 kV=0.12 model=7 kW=0.21040385796720473 kvar=-0.0 Phases=1
New Generator.pv_load_p6ulv23377_2 conn=wye bus1=p6ulv23377.2 kV=0.12 model=7 kW=0.21040385796720473 kvar=-0.0 Phases=1
New Generator.pv_load_p6ulv23381_2 conn=wye bus1=p6ulv23381.2 kV=0.12 model=7 kW=0.4869356732662498 kvar=-0.0 Phases=1
New Generator.pv_load_p6ulv23382_1 conn=wye bus1=p6ulv23382.1 kV=0.12 model=7 kW=0.38774599157943673 kvar=-0.0 Phases=1
New Generator.pv_load_p6ulv23382_2 conn=wye bus1=p6ulv23382.2 kV=0.12 model=7 kW=0.38774599157943673 kvar=-0.0 Phases=1
New Generator.pv_load_p6ulv23386_1 conn=wye bus1=p6ulv23386.1 kV=0.12 model=7 kW=0.14427740350932938 kvar=-0.0 Phases=1
New Generator.pv_load_p6ulv23389_1 conn=wye bus1=p6ulv23389.1 kV=0.12 model=7 kW=0.371212875091003 kvar=-0.0 Phases=1
New Generator.pv_load_p6ulv23389_2 conn=wye bus1=p6ulv23389.2 kV=0.12 model=7 kW=0.371212875091003 kvar=-0.0 Phases=1
New Generator.pv_load_p6ulv23390_1 conn=wye bus1=p6ulv23390.1 kV=0.12 model=7 kW=0.3005777987382725 kvar=-0.0 Phases=1
New Generator.pv_load_p6ulv23393_2 conn=wye bus1=p6ulv23393.2 kV=0.12 model=7 kW=0.19537511831768767 kvar=-0.0 Phases=1
New Generator.pv_load_p6ulv23394_2 conn=wye bus1=p6ulv23394.2 kV=0.12 model=7 kW=0.2449714620350591 kvar=-0.0 Phases=1
New Generator.pv_load_p6ulv23397_2 conn=wye bus1=p6ulv23397.2 kV=0.12 model=7 kW=0.19838086624759108 kvar=-0.0 Phases=1
New Generator.pv_load_p6ulv23398_1 conn=wye bus1=p6ulv23398.1 kV=0.12 model=7 kW=0.46890118568682926 kvar=-0.0 Phases=1
New Generator.pv_load_p6ulv23399_2 conn=wye bus1=p6ulv23399.2 kV=0.12 model=7 kW=0.470404059651781 kvar=-0.0 Phases=1
New Generator.pv_load_p6ulv23404_2 conn=wye bus1=p6ulv23404.2 kV=0.12 model=7 kW=0.33213815200225844 kvar=-0.0 Phases=1
New Generator.pv_load_p6ulv23414_1 conn=wye bus1=p6ulv23414.1 kV=0.12 model=7 kW=0.2584973277196246 kvar=-0.0 Phases=1
New Generator.pv_load_p6ulv23415_2 conn=wye bus1=p6ulv23415.2 kV=0.12 model=7 kW=0.17132913487846022 kvar=-0.0 Phases=1
New Generator.pv_load_p6ulv23416_2 conn=wye bus1=p6ulv23416.2 kV=0.12 model=7 kW=0.37421862302090636 kvar=-0.0 Phases=1
New Generator.pv_load_p6ulv23418_2 conn=wye bus1=p6ulv23418.2 kV=0.12 model=7 kW=0.360692757336341 kvar=-0.0 Phases=1
New Generator.pv_load_p6ulv23419_1 conn=wye bus1=p6ulv23419.1 kV=0.12 model=7 kW=0.35918988337138924 kvar=-0.0 Phases=1
New Generator.pv_load_p6ulv23422_1 conn=wye bus1=p6ulv23422.1 kV=0.12 model=7 kW=0.3246237821774999 kvar=-0.0 Phases=1
New Generator.pv_load_p6ulv23425_1 conn=wye bus1=p6ulv23425.1 kV=0.12 model=7 kW=0.26450882357943134 kvar=-0.0 Phases=1
New Generator.pv_load_p6ulv23425_2 conn=wye bus1=p6ulv23425.2 kV=0.12 model=7 kW=0.26450882357943134 kvar=-0.0 Phases=1
