New Loadshape.res_331403_pu npts=672 interval=0.25 mult = (file=/home/sabraham/disco/tests/data/smart-ds/profiles/res_331403_pu.csv)
New Loadshape.com_42348_pu npts=672 interval=0.25 mult = (file=/home/sabraham/disco/tests/data/smart-ds/profiles/com_42348_pu.csv)
New Loadshape.res_376976_pu npts=672 interval=0.25 mult = (file=/home/sabraham/disco/tests/data/smart-ds/profiles/res_376976_pu.csv)
New Loadshape.com_42479_pu npts=672 interval=0.25 mult = (file=/home/sabraham/disco/tests/data/smart-ds/profiles/com_42479_pu.csv)
New Loadshape.res_376152_pu npts=672 interval=0.25 mult = (file=/home/sabraham/disco/tests/data/smart-ds/profiles/res_376152_pu.csv)
New Loadshape.res_11438_pu npts=672 interval=0.25 mult = (file=/home/sabraham/disco/tests/data/smart-ds/profiles/res_11438_pu.csv)
New Loadshape.res_92801_pu npts=672 interval=0.25 mult = (file=/home/sabraham/disco/tests/data/smart-ds/profiles/res_92801_pu.csv)
New Loadshape.res_210294_pu npts=672 interval=0.25 mult = (file=/home/sabraham/disco/tests/data/smart-ds/profiles/res_210294_pu.csv)
New Loadshape.res_314771_pu npts=672 interval=0.25 mult = (file=/home/sabraham/disco/tests/data/smart-ds/profiles/res_314771_pu.csv)
New Loadshape.res_268766_pu npts=672 interval=0.25 mult = (file=/home/sabraham/disco/tests/data/smart-ds/profiles/res_268766_pu.csv)
New Loadshape.res_530417_pu npts=672 interval=0.25 mult = (file=/home/sabraham/disco/tests/data/smart-ds/profiles/res_530417_pu.csv)
New Loadshape.res_481548_pu npts=672 interval=0.25 mult = (file=/home/sabraham/disco/tests/data/smart-ds/profiles/res_481548_pu.csv)
New Loadshape.res_386823_pu npts=672 interval=0.25 mult = (file=/home/sabraham/disco/tests/data/smart-ds/profiles/res_386823_pu.csv)
New Loadshape.res_418184_pu npts=672 interval=0.25 mult = (file=/home/sabraham/disco/tests/data/smart-ds/profiles/res_418184_pu.csv)
New Loadshape.res_123286_pu npts=672 interval=0.25 mult = (file=/home/sabraham/disco/tests/data/smart-ds/profiles/res_123286_pu.csv)
New Loadshape.res_53470_pu npts=672 interval=0.25 mult = (file=/home/sabraham/disco/tests/data/smart-ds/profiles/res_53470_pu.csv)
New Loadshape.res_190360_pu npts=672 interval=0.25 mult = (file=/home/sabraham/disco/tests/data/smart-ds/profiles/res_190360_pu.csv)
New Loadshape.res_382096_pu npts=672 interval=0.25 mult = (file=/home/sabraham/disco/tests/data/smart-ds/profiles/res_382096_pu.csv)
New Loadshape.res_347994_pu npts=672 interval=0.25 mult = (file=/home/sabraham/disco/tests/data/smart-ds/profiles/res_347994_pu.csv)
New Loadshape.res_26165_pu npts=672 interval=0.25 mult = (file=/home/sabraham/disco/tests/data/smart-ds/profiles/res_26165_pu.csv)
New Loadshape.res_356860_pu npts=672 interval=0.25 mult = (file=/home/sabraham/disco/tests/data/smart-ds/profiles/res_356860_pu.csv)
New Loadshape.com_42489_pu npts=672 interval=0.25 mult = (file=/home/sabraham/disco/tests/data/smart-ds/profiles/com_42489_pu.csv)
New Loadshape.res_240883_pu npts=672 interval=0.25 mult = (file=/home/sabraham/disco/tests/data/smart-ds/profiles/res_240883_pu.csv)
New Loadshape.res_349965_pu npts=672 interval=0.25 mult = (file=/home/sabraham/disco/tests/data/smart-ds/profiles/res_349965_pu.csv)
New Loadshape.res_218744_pu npts=672 interval=0.25 mult = (file=/home/sabraham/disco/tests/data/smart-ds/profiles/res_218744_pu.csv)
New Loadshape.res_32458_pu npts=672 interval=0.25 mult = (file=/home/sabraham/disco/tests/data/smart-ds/profiles/res_32458_pu.csv)
New Loadshape.res_237151_pu npts=672 interval=0.25 mult = (file=/home/sabraham/disco/tests/data/smart-ds/profiles/res_237151_pu.csv)
New Loadshape.res_356583_pu npts=672 interval=0.25 mult = (file=/home/sabraham/disco/tests/data/smart-ds/profiles/res_356583_pu.csv)
New Loadshape.res_190447_pu npts=672 interval=0.25 mult = (file=/home/sabraham/disco/tests/data/smart-ds/profiles/res_190447_pu.csv)
