New Load.motor_load_p6ulv25062 conn=wye bus1=p6ulv25062.1.2.3 kV=0.48 kW=1.1980983604839857 kvar=0.23961967209679713 Phases=3 Vminpu=0.0 Vmaxpu=1.2 model=1
