New Line.l(r:p6udt124lv-p6ulv245) Units=km Length=0.014477 bus1=p6udt124lv.1.2 bus2=p6ulv245.1.2 switch=n enabled=y phases=2 Linecode=1P_UG_AL_1/0_Brenau_2

New Line.l(r:p6udm262-p6ulv246) Units=km Length=0.0170971 bus1=p6udm262.1.2 bus2=p6ulv246.1.2 switch=n enabled=y phases=2 Linecode=1P_UG_AL_1/0_Brenau_2

New Line.l(r:p6udm263-p6ulv247) Units=km Length=0.0123727 bus1=p6udm263.1.2 bus2=p6ulv247.1.2 switch=n enabled=y phases=2 Linecode=1P_UG_AL_1/0_Brenau_2

New Line.l(r:p6udm264-p6ulv248) Units=km Length=0.00724852 bus1=p6udm264.1.2 bus2=p6ulv248.1.2 switch=n enabled=y phases=2 Linecode=1P_UG_AL_1/0_Brenau_2

New Line.l(r:p6udm263-p6udm264) Units=km Length=0.022401 bus1=p6udm263.1.2 bus2=p6udm264.1.2 switch=n enabled=y phases=2 Linecode=1P_UG_AL_1/0_Brenau_2

New Line.l(r:p6udm262-p6udm263) Units=km Length=0.0185008 bus1=p6udm262.1.2 bus2=p6udm263.1.2 switch=n enabled=y phases=2 Linecode=1P_UG_AL_1/0_Brenau_2

New Line.l(r:p6udm262-p6udt124lv) Units=km Length=0.0173055 bus1=p6udt124lv.1.2 bus2=p6udm262.1.2 switch=n enabled=y phases=2 Linecode=1P_UG_AL_1/0_Brenau_2

New Line.l(r:p6udm265-p6ulv7674) Units=km Length=0.015856 bus1=p6udm265.1.2 bus2=p6ulv7674.1.2 switch=n enabled=y phases=2 Linecode=1P_UG_AL_1/0_Brenau_2

New Line.l(r:p6udm266-p6ulv7675) Units=km Length=0.0161225 bus1=p6udm266.1.2 bus2=p6ulv7675.1.2 switch=n enabled=y phases=2 Linecode=1P_UG_AL_1/0_Brenau_2

New Line.l(r:p6udm265-p6udm266) Units=km Length=0.0177963 bus1=p6udm265.1.2 bus2=p6udm266.1.2 switch=n enabled=y phases=2 Linecode=1P_UG_AL_1/0_Brenau_2

New Line.l(r:p6udm265-p6udt124lv) Units=km Length=0.026903 bus1=p6udt124lv.1.2 bus2=p6udm265.1.2 switch=n enabled=y phases=2 Linecode=1P_UG_AL_1/0_Brenau_2

New Line.l(r:p6udm267-p6ulv249) Units=km Length=0.00185348 bus1=p6udm267.1.2 bus2=p6ulv249.1.2 switch=n enabled=y phases=2 Linecode=1P_UG_AL_1/0_Brenau_2

New Line.l(r:p6udm267-p6ulv250) Units=km Length=0.0153101 bus1=p6udm267.1.2 bus2=p6ulv250.1.2 switch=n enabled=y phases=2 Linecode=1P_UG_AL_1/0_Brenau_2

New Line.l(r:p6udm267-p6udt125lv) Units=km Length=0.0483095 bus1=p6udt125lv.1.2 bus2=p6udm267.1.2 switch=n enabled=y phases=2 Linecode=1P_UG_AL_1/0_Brenau_2

New Line.l(r:p6udm269-p6ulv5193) Units=km Length=0.00986471 bus1=p6udm269.1.2 bus2=p6ulv5193.1.2 switch=n enabled=y phases=2 Linecode=1P_UG_AL_1/0_Brenau_2

New Line.l(r:p6udm269-p6ulv5200) Units=km Length=0.015759 bus1=p6udm269.1.2 bus2=p6ulv5200.1.2 switch=n enabled=y phases=2 Linecode=1P_UG_AL_1/0_Brenau_2

New Line.l(r:p6udm271-p6ulv5196) Units=km Length=0.0110572 bus1=p6udm271.1.2 bus2=p6ulv5196.1.2 switch=n enabled=y phases=2 Linecode=1P_UG_AL_1/0_Brenau_2

New Line.l(r:p6udm270-p6ulv5195) Units=km Length=0.0128642 bus1=p6udm270.1.2 bus2=p6ulv5195.1.2 switch=n enabled=y phases=2 Linecode=1P_UG_AL_1/0_Brenau_2

New Line.l(r:p6udm270-p6udm271) Units=km Length=0.0164633 bus1=p6udm271.1.2 bus2=p6udm270.1.2 switch=n enabled=y phases=2 Linecode=1P_UG_AL_1/0_Brenau_2

New Line.l(r:p6udm269-p6udm271) Units=km Length=0.00760348 bus1=p6udm269.1.2 bus2=p6udm271.1.2 switch=n enabled=y phases=2 Linecode=1P_UG_AL_1/0_Brenau_2

New Line.l(r:p6udm269-p6udt125lv) Units=km Length=0.014310500000000002 bus1=p6udt125lv.1.2 bus2=p6udm269.1.2 switch=n enabled=y phases=2 Linecode=1P_UG_AL_1/0_Brenau_2

New Line.l(r:p6udt126lv-p6ulv252) Units=km Length=0.00884977 bus1=p6udt126lv.1.2 bus2=p6ulv252.1.2 switch=n enabled=y phases=2 Linecode=1P_UG_AL_1/0_Brenau_2

New Line.l(r:p6udm275-p6ulv253) Units=km Length=0.011175 bus1=p6udm275.1.2 bus2=p6ulv253.1.2 switch=n enabled=y phases=2 Linecode=1P_UG_AL_1/0_Brenau_2

New Line.l(r:p6udm276-p6ulv254) Units=km Length=0.014227100000000001 bus1=p6udm276.1.2 bus2=p6ulv254.1.2 switch=n enabled=y phases=2 Linecode=1P_UG_AL_1/0_Brenau_2

New Line.l(r:p6udm279-p6ulv258) Units=km Length=0.0132583 bus1=p6udm279.1.2 bus2=p6ulv258.1.2 switch=n enabled=y phases=2 Linecode=1P_UG_AL_1/0_Brenau_2

New Line.l(r:p6udm276-p6udm279) Units=km Length=0.0504119 bus1=p6udm276.1.2 bus2=p6udm279.1.2 switch=n enabled=y phases=2 Linecode=1P_UG_AL_1/0_Brenau_2

New Line.l(r:p6udm275-p6udm276) Units=km Length=0.00492367 bus1=p6udm275.1.2 bus2=p6udm276.1.2 switch=n enabled=y phases=2 Linecode=1P_UG_AL_1/0_Brenau_2

New Line.l(r:p6udm275-p6udt126lv) Units=km Length=0.021003600000000004 bus1=p6udt126lv.1.2 bus2=p6udm275.1.2 switch=n enabled=y phases=2 Linecode=1P_UG_AL_1/0_Brenau_2

New Line.l(r:p6udm277-p6ulv255) Units=km Length=0.00985091 bus1=p6udm277.1.2 bus2=p6ulv255.1.2 switch=n enabled=y phases=2 Linecode=1P_UG_AL_1/0_Brenau_2

New Line.l(r:p6udm273-p6ulv251) Units=km Length=0.0166032 bus1=p6udm273.1.2 bus2=p6ulv251.1.2 switch=n enabled=y phases=2 Linecode=1P_UG_AL_1/0_Brenau_2

New Line.l(r:p6udm273-p6ulv256) Units=km Length=0.0144693 bus1=p6udm273.1.2 bus2=p6ulv256.1.2 switch=n enabled=y phases=2 Linecode=1P_UG_AL_1/0_Brenau_2

New Line.l(r:p6udm273-p6udm277) Units=km Length=0.0187946 bus1=p6udm277.1.2 bus2=p6udm273.1.2 switch=n enabled=y phases=2 Linecode=1P_UG_AL_1/0_Brenau_2

New Line.l(r:p6udm277-p6udt126lv) Units=km Length=0.0085258 bus1=p6udt126lv.1.2 bus2=p6udm277.1.2 switch=n enabled=y phases=2 Linecode=1P_UG_AL_1/0_Brenau_2

New Line.l(r:p6udm283-p6ulv5203) Units=km Length=0.004224040000000001 bus1=p6udm283.1.2 bus2=p6ulv5203.1.2 switch=n enabled=y phases=2 Linecode=1P_UG_AL_1/0_Brenau_2

New Line.l(r:p6udm283-p6ulv11775) Units=km Length=0.00606786 bus1=p6udm283.1.2 bus2=p6ulv11775.1.2 switch=n enabled=y phases=2 Linecode=1P_UG_AL_1/0_Brenau_2

New Line.l(r:p6udm280-p6ulv257) Units=km Length=0.00833319 bus1=p6udm280.1.2 bus2=p6ulv257.1.2 switch=n enabled=y phases=2 Linecode=1P_UG_AL_1/0_Brenau_2

New Line.l(r:p6udm281-p6ulv433) Units=km Length=0.00665688 bus1=p6udm281.1.2 bus2=p6ulv433.1.2 switch=n enabled=y phases=2 Linecode=1P_UG_AL_1/0_Brenau_2

New Line.l(r:p6udm284-p6ulv5204) Units=km Length=0.007541170000000001 bus1=p6udm284.1.2 bus2=p6ulv5204.1.2 switch=n enabled=y phases=2 Linecode=1P_UG_AL_1/0_Brenau_2

New Line.l(r:p6udm281-p6udm284) Units=km Length=0.029110600000000004 bus1=p6udm281.1.2 bus2=p6udm284.1.2 switch=n enabled=y phases=2 Linecode=1P_UG_AL_1/0_Brenau_2

New Line.l(r:p6udm280-p6udm281) Units=km Length=0.0105317 bus1=p6udm280.1.2 bus2=p6udm281.1.2 switch=n enabled=y phases=2 Linecode=1P_UG_AL_1/0_Brenau_2

New Line.l(r:p6udm280-p6udm283) Units=km Length=0.0194172 bus1=p6udm283.1.2 bus2=p6udm280.1.2 switch=n enabled=y phases=2 Linecode=1P_UG_AL_1/0_Brenau_2

New Line.l(r:p6udm283-p6udt127lv) Units=km Length=0.0194267 bus1=p6udt127lv.1.2 bus2=p6udm283.1.2 switch=n enabled=y phases=2 Linecode=1P_UG_AL_1/0_Brenau_2

New Line.l(r:p6udm287-p6ulv11774) Units=km Length=0.0035101 bus1=p6udm287.1.2 bus2=p6ulv11774.1.2 switch=n enabled=y phases=2 Linecode=1P_UG_AL_1/0_Brenau_2

New Line.l(r:p6udm282-p6ulv5202) Units=km Length=0.00656111 bus1=p6udm282.1.2 bus2=p6ulv5202.1.2 switch=n enabled=y phases=2 Linecode=1P_UG_AL_1/0_Brenau_2

New Line.l(r:p6udm286-p6ulv11773) Units=km Length=0.00444401 bus1=p6udm286.1.2 bus2=p6ulv11773.1.2 switch=n enabled=y phases=2 Linecode=1P_UG_AL_1/0_Brenau_2

New Line.l(r:p6udm285-p6ulv11772) Units=km Length=0.0120265 bus1=p6udm285.1.2 bus2=p6ulv11772.1.2 switch=n enabled=y phases=2 Linecode=1P_UG_AL_1/0_Brenau_2

New Line.l(r:p6udm285-p6udm286) Units=km Length=0.0199786 bus1=p6udm286.1.2 bus2=p6udm285.1.2 switch=n enabled=y phases=2 Linecode=1P_UG_AL_1/0_Brenau_2

New Line.l(r:p6udm282-p6udm286) Units=km Length=0.0396854 bus1=p6udm282.1.2 bus2=p6udm286.1.2 switch=n enabled=y phases=2 Linecode=1P_UG_AL_1/0_Brenau_2

New Line.l(r:p6udm282-p6udm287) Units=km Length=0.00970858 bus1=p6udm287.1.2 bus2=p6udm282.1.2 switch=n enabled=y phases=2 Linecode=1P_UG_AL_1/0_Brenau_2

New Line.l(r:p6udm287-p6udt127lv) Units=km Length=0.00970858 bus1=p6udt127lv.1.2 bus2=p6udm287.1.2 switch=n enabled=y phases=2 Linecode=1P_UG_AL_1/0_Brenau_2

New Line.l(r:p6udm290-p6ulv260) Units=km Length=0.0132636 bus1=p6udm290.1.2 bus2=p6ulv260.1.2 switch=n enabled=y phases=2 Linecode=1P_UG_AL_1/0_Brenau_2

New Line.l(r:p6udm290-p6ulv262) Units=km Length=0.0163451 bus1=p6udm290.1.2 bus2=p6ulv262.1.2 switch=n enabled=y phases=2 Linecode=1P_UG_AL_1/0_Brenau_2

New Line.l(r:p6udm293-p6ulv263) Units=km Length=0.0151751 bus1=p6udm293.1.2 bus2=p6ulv263.1.2 switch=n enabled=y phases=2 Linecode=1P_UG_AL_1/0_Brenau_2

New Line.l(r:p6udm290-p6udm293) Units=km Length=0.016053 bus1=p6udm290.1.2 bus2=p6udm293.1.2 switch=n enabled=y phases=2 Linecode=1P_UG_AL_1/0_Brenau_2

New Line.l(r:p6udm290-p6udt128lv) Units=km Length=0.00801152 bus1=p6udt128lv.1.2 bus2=p6udm290.1.2 switch=n enabled=y phases=2 Linecode=1P_UG_AL_1/0_Brenau_2

New Line.l(r:p6udm291-p6ulv261) Units=km Length=0.00683729 bus1=p6udm291.1.2 bus2=p6ulv261.1.2 switch=n enabled=y phases=2 Linecode=1P_UG_AL_1/0_Brenau_2

New Line.l(r:p6udm289-p6ulv259) Units=km Length=0.00962605 bus1=p6udm289.1.2 bus2=p6ulv259.1.2 switch=n enabled=y phases=2 Linecode=1P_UG_AL_1/0_Brenau_2

New Line.l(r:p6udm289-p6udm291) Units=km Length=0.030938700000000003 bus1=p6udm291.1.2 bus2=p6udm289.1.2 switch=n enabled=y phases=2 Linecode=1P_UG_AL_1/0_Brenau_2

New Line.l(r:p6udm291-p6udt128lv) Units=km Length=0.00801859 bus1=p6udt128lv.1.2 bus2=p6udm291.1.2 switch=n enabled=y phases=2 Linecode=1P_UG_AL_1/0_Brenau_2

New Line.l(r:p6udt129lv-p6ulv269) Units=km Length=0.0210909 bus1=p6udt129lv.1.2 bus2=p6ulv269.1.2 switch=n enabled=y phases=2 Linecode=1P_UG_AL_1/0_Brenau_2

New Line.l(r:p6udm296-p6ulv270) Units=km Length=0.0378853 bus1=p6udm296.1.2 bus2=p6ulv270.1.2 switch=n enabled=y phases=2 Linecode=1P_UG_AL_1/0_Brenau_2

New Line.l(r:p6udm294-p6ulv264) Units=km Length=0.0158762 bus1=p6udm294.1.2 bus2=p6ulv264.1.2 switch=n enabled=y phases=2 Linecode=1P_UG_AL_1/0_Brenau_2

New Line.l(r:p6udm294-p6ulv429) Units=km Length=0.0119397 bus1=p6udm294.1.2 bus2=p6ulv429.1.2 switch=n enabled=y phases=2 Linecode=1P_UG_AL_1/0_Brenau_2

New Line.l(r:p6udm294-p6udm296) Units=km Length=0.0194533 bus1=p6udm296.1.2 bus2=p6udm294.1.2 switch=n enabled=y phases=2 Linecode=1P_UG_AL_1/0_Brenau_2

New Line.l(r:p6udm296-p6udt129lv) Units=km Length=0.00972666 bus1=p6udt129lv.1.2 bus2=p6udm296.1.2 switch=n enabled=y phases=2 Linecode=1P_UG_AL_1/0_Brenau_2

New Line.l(r:p6udm297-p6ulv427) Units=km Length=0.0129209 bus1=p6udm297.1.2 bus2=p6ulv427.1.2 switch=n enabled=y phases=2 Linecode=1P_UG_AL_1/0_Brenau_2

New Line.l(r:p6udm297-p6udt129lv) Units=km Length=0.0445698 bus1=p6udt129lv.1.2 bus2=p6udm297.1.2 switch=n enabled=y phases=2 Linecode=1P_UG_AL_1/0_Brenau_2

New Line.l(r:p6udm299-p6ulv265) Units=km Length=0.024386000000000005 bus1=p6udm299.1.2 bus2=p6ulv265.1.2 switch=n enabled=y phases=2 Linecode=1P_UG_AL_1/0_Brenau_2

New Line.l(r:p6udm302-p6ulv5208) Units=km Length=0.0114469 bus1=p6udm302.1.2 bus2=p6ulv5208.1.2 switch=n enabled=y phases=2 Linecode=1P_UG_AL_1/0_Brenau_2

New Line.l(r:p6udm300-p6ulv266) Units=km Length=0.0230151 bus1=p6udm300.1.2 bus2=p6ulv266.1.2 switch=n enabled=y phases=2 Linecode=1P_UG_AL_1/0_Brenau_2

New Line.l(r:p6udm300-p6udm302) Units=km Length=0.00946126 bus1=p6udm302.1.2 bus2=p6udm300.1.2 switch=n enabled=y phases=2 Linecode=1P_UG_AL_1/0_Brenau_2

New Line.l(r:p6udm299-p6udm302) Units=km Length=0.0098134 bus1=p6udm299.1.2 bus2=p6udm302.1.2 switch=n enabled=y phases=2 Linecode=1P_UG_AL_1/0_Brenau_2

New Line.l(r:p6udm299-p6udt130lv) Units=km Length=0.00982744 bus1=p6udt130lv.1.2 bus2=p6udm299.1.2 switch=n enabled=y phases=2 Linecode=1P_UG_AL_1/0_Brenau_2

New Line.l(r:p6udm301-p6ulv432) Units=km Length=0.0369836 bus1=p6udm301.1.2 bus2=p6ulv432.1.2 switch=n enabled=y phases=2 Linecode=1P_UG_AL_1/0_Brenau_2

New Line.l(r:p6udm301-p6udt130lv) Units=km Length=0.0214364 bus1=p6udt130lv.1.2 bus2=p6udm301.1.2 switch=n enabled=y phases=2 Linecode=1P_UG_AL_1/0_Brenau_2

New Line.l(r:p6udm303-p6ulv267) Units=km Length=0.029583400000000003 bus1=p6udm303.1.2 bus2=p6ulv267.1.2 switch=n enabled=y phases=2 Linecode=1P_UG_AL_2/0_Converse_2

New Line.l(r:p6udm303-p6udt131lv) Units=km Length=0.0240011 bus1=p6udt131lv.1.2 bus2=p6udm303.1.2 switch=n enabled=y phases=2 Linecode=1P_UG_AL_2/0_Converse_2

New Line.l(r:p6udm305-p6ulv272) Units=km Length=0.0141543 bus1=p6udm305.1.2 bus2=p6ulv272.1.2 switch=n enabled=y phases=2 Linecode=1P_UG_AL_1/0_Brenau_2

New Line.l(r:p6udm304-p6ulv271) Units=km Length=0.013761100000000002 bus1=p6udm304.1.2 bus2=p6ulv271.1.2 switch=n enabled=y phases=2 Linecode=1P_UG_AL_1/0_Brenau_2

New Line.l(r:p6udm304-p6udm305) Units=km Length=0.022197000000000005 bus1=p6udm305.1.2 bus2=p6udm304.1.2 switch=n enabled=y phases=2 Linecode=1P_UG_AL_1/0_Brenau_2

New Line.l(r:p6udm305-p6udt131lv) Units=km Length=0.015811 bus1=p6udt131lv.1.2 bus2=p6udm305.1.2 switch=n enabled=y phases=2 Linecode=1P_UG_AL_1/0_Brenau_2

New Line.l(r:p6udm307-p6ulv273) Units=km Length=0.0150382 bus1=p6udm307.1.2 bus2=p6ulv273.1.2 switch=n enabled=y phases=2 Linecode=1P_UG_AL_1/0_Brenau_2

New Line.l(r:p6udm306-p6ulv268) Units=km Length=0.0153277 bus1=p6udm306.1.2 bus2=p6ulv268.1.2 switch=n enabled=y phases=2 Linecode=1P_UG_AL_1/0_Brenau_2

New Line.l(r:p6udm306-p6udm307) Units=km Length=0.0675904 bus1=p6udm307.1.2 bus2=p6udm306.1.2 switch=n enabled=y phases=2 Linecode=1P_UG_AL_1/0_Brenau_2

New Line.l(r:p6udm307-p6udt132lv) Units=km Length=0.00634331 bus1=p6udt132lv.1.2 bus2=p6udm307.1.2 switch=n enabled=y phases=2 Linecode=1P_UG_AL_1/0_Brenau_2

New Line.l(r:p6udm308-p6ulv274) Units=km Length=0.026782500000000004 bus1=p6udm308.1.2 bus2=p6ulv274.1.2 switch=n enabled=y phases=2 Linecode=1P_UG_AL_1/0_Brenau_2

New Line.l(r:p6udm309-p6ulv275) Units=km Length=0.0117975 bus1=p6udm309.1.2 bus2=p6ulv275.1.2 switch=n enabled=y phases=2 Linecode=1P_UG_AL_1/0_Brenau_2

New Line.l(r:p6udm310-p6ulv276) Units=km Length=0.00660622 bus1=p6udm310.1.2 bus2=p6ulv276.1.2 switch=n enabled=y phases=2 Linecode=1P_UG_AL_1/0_Brenau_2

New Line.l(r:p6udm309-p6udm310) Units=km Length=0.0179798 bus1=p6udm309.1.2 bus2=p6udm310.1.2 switch=n enabled=y phases=2 Linecode=1P_UG_AL_1/0_Brenau_2

New Line.l(r:p6udm308-p6udm309) Units=km Length=0.00769889 bus1=p6udm308.1.2 bus2=p6udm309.1.2 switch=n enabled=y phases=2 Linecode=1P_UG_AL_1/0_Brenau_2

New Line.l(r:p6udm308-p6udt132lv) Units=km Length=0.0076973 bus1=p6udt132lv.1.2 bus2=p6udm308.1.2 switch=n enabled=y phases=2 Linecode=1P_UG_AL_1/0_Brenau_2

New Line.l(r:p6udm313-p6ulv280) Units=km Length=0.0136085 bus1=p6udm313.1.2 bus2=p6ulv280.1.2 switch=n enabled=y phases=2 Linecode=1P_UG_AL_1/0_Brenau_2

New Line.l(r:p6udm311-p6ulv277) Units=km Length=0.0124917 bus1=p6udm311.1.2 bus2=p6ulv277.1.2 switch=n enabled=y phases=2 Linecode=1P_UG_AL_1/0_Brenau_2

New Line.l(r:p6udm314-p6ulv281) Units=km Length=0.0363406 bus1=p6udm314.1.2 bus2=p6ulv281.1.2 switch=n enabled=y phases=2 Linecode=1P_UG_AL_1/0_Brenau_2

New Line.l(r:p6udm312-p6ulv279) Units=km Length=0.0140711 bus1=p6udm312.1.2 bus2=p6ulv279.1.2 switch=n enabled=y phases=2 Linecode=1P_UG_AL_1/0_Brenau_2

New Line.l(r:p6udm312-p6udm314) Units=km Length=0.0121316 bus1=p6udm314.1.2 bus2=p6udm312.1.2 switch=n enabled=y phases=2 Linecode=1P_UG_AL_1/0_Brenau_2

New Line.l(r:p6udm311-p6udm314) Units=km Length=0.00677239 bus1=p6udm311.1.2 bus2=p6udm314.1.2 switch=n enabled=y phases=2 Linecode=1P_UG_AL_1/0_Brenau_2

New Line.l(r:p6udm311-p6udm313) Units=km Length=0.0251572 bus1=p6udm313.1.2 bus2=p6udm311.1.2 switch=n enabled=y phases=2 Linecode=1P_UG_AL_1/0_Brenau_2

New Line.l(r:p6udm313-p6udt133lv) Units=km Length=0.00999025 bus1=p6udt133lv.1.2 bus2=p6udm313.1.2 switch=n enabled=y phases=2 Linecode=1P_UG_AL_1/0_Brenau_2

New Line.l(r:p6udm316-p6ulv283) Units=km Length=0.035511400000000005 bus1=p6udm316.1.2 bus2=p6ulv283.1.2 switch=n enabled=y phases=2 Linecode=1P_UG_AL_1/0_Brenau_2

New Line.l(r:p6udm315-p6ulv282) Units=km Length=0.0116547 bus1=p6udm315.1.2 bus2=p6ulv282.1.2 switch=n enabled=y phases=2 Linecode=1P_UG_AL_1/0_Brenau_2

New Line.l(r:p6udm315-p6udm316) Units=km Length=0.0453028 bus1=p6udm316.1.2 bus2=p6udm315.1.2 switch=n enabled=y phases=2 Linecode=1P_UG_AL_1/0_Brenau_2

New Line.l(r:p6udm316-p6udt133lv) Units=km Length=0.0375723 bus1=p6udt133lv.1.2 bus2=p6udm316.1.2 switch=n enabled=y phases=2 Linecode=1P_UG_AL_1/0_Brenau_2

New Line.l(r:p6udm320-p6ulv387) Units=km Length=0.00993457 bus1=p6udm320.1.2 bus2=p6ulv387.1.2 switch=n enabled=y phases=2 Linecode=1P_UG_AL_1/0_Brenau_2

New Line.l(r:p6udm319-p6ulv386) Units=km Length=0.0157579 bus1=p6udm319.1.2 bus2=p6ulv386.1.2 switch=n enabled=y phases=2 Linecode=1P_UG_AL_1/0_Brenau_2

New Line.l(r:p6udm317-p6ulv278) Units=km Length=0.03048 bus1=p6udm317.1.2 bus2=p6ulv278.1.2 switch=n enabled=y phases=2 Linecode=1P_UG_AL_1/0_Brenau_2

New Line.l(r:p6udm317-p6udm319) Units=km Length=0.0186305 bus1=p6udm319.1.2 bus2=p6udm317.1.2 switch=n enabled=y phases=2 Linecode=1P_UG_AL_1/0_Brenau_2

New Line.l(r:p6udm319-p6udm320) Units=km Length=0.00935868 bus1=p6udm320.1.2 bus2=p6udm319.1.2 switch=n enabled=y phases=2 Linecode=1P_UG_AL_1/0_Brenau_2

New Line.l(r:p6udm320-p6udt134lv) Units=km Length=0.00935868 bus1=p6udt134lv.1.2 bus2=p6udm320.1.2 switch=n enabled=y phases=2 Linecode=1P_UG_AL_1/0_Brenau_2

New Line.l(r:p6udm321-p6ulv388) Units=km Length=0.00516748 bus1=p6udm321.1.2 bus2=p6ulv388.1.2 switch=n enabled=y phases=2 Linecode=1P_UG_AL_1/0_Brenau_2

New Line.l(r:p6udm318-p6ulv284) Units=km Length=0.0223179 bus1=p6udm318.1.2 bus2=p6ulv284.1.2 switch=n enabled=y phases=2 Linecode=1P_UG_AL_1/0_Brenau_2

New Line.l(r:p6udm322-p6ulv390) Units=km Length=0.0106763 bus1=p6udm322.1.2 bus2=p6ulv390.1.2 switch=n enabled=y phases=2 Linecode=1P_UG_AL_1/0_Brenau_2

New Line.l(r:p6udm318-p6udm322) Units=km Length=0.0346738 bus1=p6udm318.1.2 bus2=p6udm322.1.2 switch=n enabled=y phases=2 Linecode=1P_UG_AL_1/0_Brenau_2

New Line.l(r:p6udm318-p6udm321) Units=km Length=0.00761052 bus1=p6udm321.1.2 bus2=p6udm318.1.2 switch=n enabled=y phases=2 Linecode=1P_UG_AL_1/0_Brenau_2

New Line.l(r:p6udm321-p6udt134lv) Units=km Length=0.00761052 bus1=p6udt134lv.1.2 bus2=p6udm321.1.2 switch=n enabled=y phases=2 Linecode=1P_UG_AL_1/0_Brenau_2

New Line.l(r:p6udm324-p6ulv286) Units=km Length=0.00652559 bus1=p6udm324.1.2 bus2=p6ulv286.1.2 switch=n enabled=y phases=2 Linecode=1P_UG_AL_1/0_Brenau_2

New Line.l(r:p6udm323-p6ulv285) Units=km Length=0.00412158 bus1=p6udm323.1.2 bus2=p6ulv285.1.2 switch=n enabled=y phases=2 Linecode=1P_UG_AL_1/0_Brenau_2

New Line.l(r:p6udm323-p6udm324) Units=km Length=0.00809149 bus1=p6udm324.1.2 bus2=p6udm323.1.2 switch=n enabled=y phases=2 Linecode=1P_UG_AL_1/0_Brenau_2

New Line.l(r:p6udm324-p6udt135lv) Units=km Length=0.0161752 bus1=p6udt135lv.1.2 bus2=p6udm324.1.2 switch=n enabled=y phases=2 Linecode=1P_UG_AL_1/0_Brenau_2

New Line.l(r:p6udm325-p6ulv287) Units=km Length=0.0087653 bus1=p6udm325.1.2 bus2=p6ulv287.1.2 switch=n enabled=y phases=2 Linecode=1P_UG_AL_1/0_Brenau_2

New Line.l(r:p6udm326-p6ulv289) Units=km Length=0.0219788 bus1=p6udm326.1.2 bus2=p6ulv289.1.2 switch=n enabled=y phases=2 Linecode=1P_UG_AL_1/0_Brenau_2

New Line.l(r:p6udm325-p6udm326) Units=km Length=0.00863325 bus1=p6udm325.1.2 bus2=p6udm326.1.2 switch=n enabled=y phases=2 Linecode=1P_UG_AL_1/0_Brenau_2

New Line.l(r:p6udm325-p6udt135lv) Units=km Length=0.025365400000000003 bus1=p6udt135lv.1.2 bus2=p6udm325.1.2 switch=n enabled=y phases=2 Linecode=1P_UG_AL_1/0_Brenau_2

New Line.l(r:p6udm328-p6ulv290) Units=km Length=0.0122403 bus1=p6udm328.1.2 bus2=p6ulv290.1.2 switch=n enabled=y phases=2 Linecode=1P_UG_AL_1/0_Brenau_2

New Line.l(r:p6udm332-p6ulv430) Units=km Length=0.0168948 bus1=p6udm332.1.2 bus2=p6ulv430.1.2 switch=n enabled=y phases=2 Linecode=1P_UG_AL_1/0_Brenau_2

New Line.l(r:p6udm333-p6ulv431) Units=km Length=0.011181400000000001 bus1=p6udm333.1.2 bus2=p6ulv431.1.2 switch=n enabled=y phases=2 Linecode=1P_UG_AL_1/0_Brenau_2

New Line.l(r:p6udm327-p6ulv288) Units=km Length=0.00908141 bus1=p6udm327.1.2 bus2=p6ulv288.1.2 switch=n enabled=y phases=2 Linecode=1P_UG_AL_1/0_Brenau_2

New Line.l(r:p6udm327-p6udm333) Units=km Length=0.0189885 bus1=p6udm333.1.2 bus2=p6udm327.1.2 switch=n enabled=y phases=2 Linecode=1P_UG_AL_1/0_Brenau_2

New Line.l(r:p6udm332-p6udm333) Units=km Length=0.00948907 bus1=p6udm332.1.2 bus2=p6udm333.1.2 switch=n enabled=y phases=2 Linecode=1P_UG_AL_1/0_Brenau_2

New Line.l(r:p6udm328-p6udm332) Units=km Length=0.00808249 bus1=p6udm328.1.2 bus2=p6udm332.1.2 switch=n enabled=y phases=2 Linecode=1P_UG_AL_1/0_Brenau_2

New Line.l(r:p6udm328-p6udt136lv) Units=km Length=0.0161544 bus1=p6udt136lv.1.2 bus2=p6udm328.1.2 switch=n enabled=y phases=2 Linecode=1P_UG_AL_1/0_Brenau_2

New Line.l(r:p6udm329-p6ulv293) Units=km Length=0.0100222 bus1=p6udm329.1.2 bus2=p6ulv293.1.2 switch=n enabled=y phases=2 Linecode=1P_UG_AL_1/0_Brenau_2

New Line.l(r:p6udm331-p6ulv428) Units=km Length=0.00746474 bus1=p6udm331.1.2 bus2=p6ulv428.1.2 switch=n enabled=y phases=2 Linecode=1P_UG_AL_1/0_Brenau_2

New Line.l(r:p6udm334-p6ulv3598) Units=km Length=0.0211038 bus1=p6udm334.1.2 bus2=p6ulv3598.1.2 switch=n enabled=y phases=2 Linecode=1P_UG_AL_1/0_Brenau_2

New Line.l(r:p6udm330-p6ulv296) Units=km Length=0.0129788 bus1=p6udm330.1.2 bus2=p6ulv296.1.2 switch=n enabled=y phases=2 Linecode=1P_UG_AL_1/0_Brenau_2

New Line.l(r:p6udm330-p6udm334) Units=km Length=0.006766370000000001 bus1=p6udm334.1.2 bus2=p6udm330.1.2 switch=n enabled=y phases=2 Linecode=1P_UG_AL_1/0_Brenau_2

New Line.l(r:p6udm331-p6udm334) Units=km Length=0.0240542 bus1=p6udm331.1.2 bus2=p6udm334.1.2 switch=n enabled=y phases=2 Linecode=1P_UG_AL_1/0_Brenau_2

New Line.l(r:p6udm329-p6udm331) Units=km Length=0.00807718 bus1=p6udm329.1.2 bus2=p6udm331.1.2 switch=n enabled=y phases=2 Linecode=1P_UG_AL_1/0_Brenau_2

New Line.l(r:p6udm329-p6udt136lv) Units=km Length=0.00807718 bus1=p6udt136lv.1.2 bus2=p6udm329.1.2 switch=n enabled=y phases=2 Linecode=1P_UG_AL_1/0_Brenau_2

New Line.l(r:p6udt137lv-p6ulv295) Units=km Length=0.00799606 bus1=p6udt137lv.1.2 bus2=p6ulv295.1.2 switch=n enabled=y phases=2 Linecode=1P_OH_AL_2/0_Rucina_2

New Line.l(r:p6udm337-p6ulv294) Units=km Length=0.00642627 bus1=p6udm337.1.2 bus2=p6ulv294.1.2 switch=n enabled=y phases=2 Linecode=1P_UG_AL_1/0_Brenau_2

New Line.l(r:p6udm336-p6ulv292) Units=km Length=0.0110111 bus1=p6udm336.1.2 bus2=p6ulv292.1.2 switch=n enabled=y phases=2 Linecode=1P_UG_AL_1/0_Brenau_2

New Line.l(r:p6udm335-p6ulv291) Units=km Length=0.00910785 bus1=p6udm335.1.2 bus2=p6ulv291.1.2 switch=n enabled=y phases=2 Linecode=1P_UG_AL_1/0_Brenau_2

New Line.l(r:p6udm335-p6udm336) Units=km Length=0.0157865 bus1=p6udm336.1.2 bus2=p6udm335.1.2 switch=n enabled=y phases=2 Linecode=1P_UG_AL_1/0_Brenau_2

New Line.l(r:p6udm336-p6udm337) Units=km Length=0.00788204 bus1=p6udm337.1.2 bus2=p6udm336.1.2 switch=n enabled=y phases=2 Linecode=1P_UG_AL_1/0_Brenau_2

New Line.l(r:p6udm337-p6udt137lv) Units=km Length=0.0139822 bus1=p6udt137lv.1.2 bus2=p6udm337.1.2 switch=n enabled=y phases=2 Linecode=1P_OH_AL_2/0_Rucina_2

New Line.l(r:p6udm339-p6ulv298) Units=km Length=0.0183392 bus1=p6udm339.1.2 bus2=p6ulv298.1.2 switch=n enabled=y phases=2 Linecode=1P_UG_AL_1/0_Brenau_2

New Line.l(r:p6udm340-p6ulv299) Units=km Length=0.0122777 bus1=p6udm340.1.2 bus2=p6ulv299.1.2 switch=n enabled=y phases=2 Linecode=1P_UG_AL_1/0_Brenau_2

New Line.l(r:p6udm339-p6udm340) Units=km Length=0.0100018 bus1=p6udm339.1.2 bus2=p6udm340.1.2 switch=n enabled=y phases=2 Linecode=1P_UG_AL_1/0_Brenau_2

New Line.l(r:p6udm339-p6udt137lv) Units=km Length=0.0275918 bus1=p6udt137lv.1.2 bus2=p6udm339.1.2 switch=n enabled=y phases=2 Linecode=1P_OH_AL_4/0_Zuzara_2

New Line.l(r:p6udt138lv-p6ulv303) Units=km Length=0.011325400000000001 bus1=p6udt138lv.1.2 bus2=p6ulv303.1.2 switch=n enabled=y phases=2 Linecode=1P_UG_AL_1/0_Brenau_2

New Line.l(r:p6udm344-p6ulv304) Units=km Length=0.0105333 bus1=p6udm344.1.2 bus2=p6ulv304.1.2 switch=n enabled=y phases=2 Linecode=1P_UG_AL_1/0_Brenau_2

New Line.l(r:p6udm345-p6ulv305) Units=km Length=0.019662 bus1=p6udm345.1.2 bus2=p6ulv305.1.2 switch=n enabled=y phases=2 Linecode=1P_UG_AL_1/0_Brenau_2

New Line.l(r:p6udm345-p6ulv307) Units=km Length=0.0110215 bus1=p6udm345.1.2 bus2=p6ulv307.1.2 switch=n enabled=y phases=2 Linecode=1P_UG_AL_1/0_Brenau_2

New Line.l(r:p6udm345-p6ulv308) Units=km Length=0.015223100000000002 bus1=p6udm345.1.2 bus2=p6ulv308.1.2 switch=n enabled=y phases=2 Linecode=1P_UG_AL_1/0_Brenau_2

New Line.l(r:p6udm349-p6ulv309) Units=km Length=0.00898154 bus1=p6udm349.1.2 bus2=p6ulv309.1.2 switch=n enabled=y phases=2 Linecode=1P_UG_AL_1/0_Brenau_2

New Line.l(r:p6udm350-p6ulv310) Units=km Length=0.0113542 bus1=p6udm350.1.2 bus2=p6ulv310.1.2 switch=n enabled=y phases=2 Linecode=1P_UG_AL_1/0_Brenau_2

New Line.l(r:p6udm351-p6ulv311) Units=km Length=0.0122755 bus1=p6udm351.1.2 bus2=p6ulv311.1.2 switch=n enabled=y phases=2 Linecode=1P_UG_AL_1/0_Brenau_2

New Line.l(r:p6udm352-p6ulv313) Units=km Length=0.010521700000000002 bus1=p6udm352.1.2 bus2=p6ulv313.1.2 switch=n enabled=y phases=2 Linecode=1P_UG_AL_1/0_Brenau_2

New Line.l(r:p6udm352-p6ulv314) Units=km Length=0.013459400000000002 bus1=p6udm352.1.2 bus2=p6ulv314.1.2 switch=n enabled=y phases=2 Linecode=1P_UG_AL_1/0_Brenau_2

New Line.l(r:p6udm351-p6udm352) Units=km Length=0.0100001 bus1=p6udm351.1.2 bus2=p6udm352.1.2 switch=n enabled=y phases=2 Linecode=1P_UG_AL_1/0_Brenau_2

New Line.l(r:p6udm350-p6udm351) Units=km Length=0.0100001 bus1=p6udm350.1.2 bus2=p6udm351.1.2 switch=n enabled=y phases=2 Linecode=1P_UG_AL_1/0_Brenau_2

New Line.l(r:p6udm349-p6udm350) Units=km Length=0.009989180000000002 bus1=p6udm349.1.2 bus2=p6udm350.1.2 switch=n enabled=y phases=2 Linecode=1P_UG_AL_1/0_Brenau_2

New Line.l(r:p6udm345-p6udm349) Units=km Length=0.0100001 bus1=p6udm345.1.2 bus2=p6udm349.1.2 switch=n enabled=y phases=2 Linecode=1P_UG_AL_2/0_Converse_2

New Line.l(r:p6udm344-p6udm345) Units=km Length=0.00967988 bus1=p6udm344.1.2 bus2=p6udm345.1.2 switch=n enabled=y phases=2 Linecode=1P_UG_AL_4/0_Sweetbriar_2

New Line.l(r:p6udm344-p6udt138lv) Units=km Length=0.0096699 bus1=p6udt138lv.1.2 bus2=p6udm344.1.2 switch=n enabled=y phases=2 Linecode=1P_UG_AL_4/0_Sweetbriar_2

New Line.l(r:p6udm346-p6ulv306) Units=km Length=0.0199391 bus1=p6udm346.1.2 bus2=p6ulv306.1.2 switch=n enabled=y phases=2 Linecode=1P_UG_AL_1/0_Brenau_2

New Line.l(r:p6udm355-p6ulv3600) Units=km Length=0.0101071 bus1=p6udm355.1.2 bus2=p6ulv3600.1.2 switch=n enabled=y phases=2 Linecode=1P_UG_AL_1/0_Brenau_2

New Line.l(r:p6udm356-p6ulv3601) Units=km Length=0.0185621 bus1=p6udm356.1.2 bus2=p6ulv3601.1.2 switch=n enabled=y phases=2 Linecode=1P_UG_AL_1/0_Brenau_2

New Line.l(r:p6udm342-p6ulv300) Units=km Length=0.0133402 bus1=p6udm342.1.2 bus2=p6ulv300.1.2 switch=n enabled=y phases=2 Linecode=1P_UG_AL_1/0_Brenau_2

New Line.l(r:p6udm341-p6ulv297) Units=km Length=0.0205443 bus1=p6udm341.1.2 bus2=p6ulv297.1.2 switch=n enabled=y phases=2 Linecode=1P_UG_AL_1/0_Brenau_2

New Line.l(r:p6udm341-p6ulv3599) Units=km Length=0.0165832 bus1=p6udm341.1.2 bus2=p6ulv3599.1.2 switch=n enabled=y phases=2 Linecode=1P_UG_AL_1/0_Brenau_2

New Line.l(r:p6udm341-p6udm342) Units=km Length=0.00904275 bus1=p6udm342.1.2 bus2=p6udm341.1.2 switch=n enabled=y phases=2 Linecode=1P_UG_AL_1/0_Brenau_2

New Line.l(r:p6udm342-p6udm356) Units=km Length=0.00904275 bus1=p6udm356.1.2 bus2=p6udm342.1.2 switch=n enabled=y phases=2 Linecode=1P_UG_AL_1/0_Brenau_2

New Line.l(r:p6udm355-p6udm356) Units=km Length=0.00904275 bus1=p6udm355.1.2 bus2=p6udm356.1.2 switch=n enabled=y phases=2 Linecode=1P_UG_AL_1/0_Brenau_2

New Line.l(r:p6udm346-p6udm355) Units=km Length=0.00904275 bus1=p6udm346.1.2 bus2=p6udm355.1.2 switch=n enabled=y phases=2 Linecode=1P_UG_AL_1/0_Brenau_2

New Line.l(r:p6udm346-p6udt138lv) Units=km Length=0.0379659 bus1=p6udt138lv.1.2 bus2=p6udm346.1.2 switch=n enabled=y phases=2 Linecode=1P_UG_AL_1/0_Brenau_2

New Line.l(r:p6udm358-p6ulv302) Units=km Length=0.0172921 bus1=p6udm358.1.2 bus2=p6ulv302.1.2 switch=n enabled=y phases=2 Linecode=1P_UG_AL_1/0_Brenau_2

New Line.l(r:p6udm357-p6ulv301) Units=km Length=0.0121984 bus1=p6udm357.1.2 bus2=p6ulv301.1.2 switch=n enabled=y phases=2 Linecode=1P_UG_AL_4/0_Sweetbriar_2

New Line.l(r:p6udm357-p6udm358) Units=km Length=0.039381700000000006 bus1=p6udm358.1.2 bus2=p6udm357.1.2 switch=n enabled=y phases=2 Linecode=1P_UG_AL_4/0_Sweetbriar_2

New Line.l(r:p6udm358-p6udt139lv) Units=km Length=0.00968149 bus1=p6udt139lv.1.2 bus2=p6udm358.1.2 switch=n enabled=y phases=2 Linecode=1P_UG_AL_4/0_Sweetbriar_2

New Line.l(r:p6udm359-p6ulv312) Units=km Length=0.0152254 bus1=p6udm359.1.2 bus2=p6ulv312.1.2 switch=n enabled=y phases=2 Linecode=1P_UG_AL_1/0_Brenau_2

New Line.l(r:p6udm359-p6udt139lv) Units=km Length=0.0474079 bus1=p6udt139lv.1.2 bus2=p6udm359.1.2 switch=n enabled=y phases=2 Linecode=1P_UG_AL_1/0_Brenau_2

New Line.l(r:p6udm361-p6ulv319) Units=km Length=0.014260300000000002 bus1=p6udm361.1.2 bus2=p6ulv319.1.2 switch=n enabled=y phases=2 Linecode=1P_UG_AL_1/0_Brenau_2

New Line.l(r:p6udm362-p6ulv320) Units=km Length=0.0234613 bus1=p6udm362.1.2 bus2=p6ulv320.1.2 switch=n enabled=y phases=2 Linecode=1P_UG_AL_1/0_Brenau_2

New Line.l(r:p6udm361-p6udm362) Units=km Length=0.0229787 bus1=p6udm361.1.2 bus2=p6udm362.1.2 switch=n enabled=y phases=2 Linecode=1P_UG_AL_1/0_Brenau_2

New Line.l(r:p6udm361-p6udt140lv) Units=km Length=0.00745059 bus1=p6udt140lv.1.2 bus2=p6udm361.1.2 switch=n enabled=y phases=2 Linecode=1P_UG_AL_1/0_Brenau_2

New Line.l(r:p6udm363-p6ulv322) Units=km Length=0.00930267 bus1=p6udm363.1.2 bus2=p6ulv322.1.2 switch=n enabled=y phases=2 Linecode=1P_UG_AL_1/0_Brenau_2

New Line.l(r:p6udm363-p6udt140lv) Units=km Length=0.0484753 bus1=p6udt140lv.1.2 bus2=p6udm363.1.2 switch=n enabled=y phases=2 Linecode=1P_UG_AL_1/0_Brenau_2

New Line.l(r:p6udm364-p6ulv325) Units=km Length=0.012847 bus1=p6udm364.1.2 bus2=p6ulv325.1.2 switch=n enabled=y phases=2 Linecode=1P_UG_AL_1/0_Brenau_2

New Line.l(r:p6udm360-p6ulv315) Units=km Length=0.013523 bus1=p6udm360.1.2 bus2=p6ulv315.1.2 switch=n enabled=y phases=2 Linecode=1P_UG_AL_1/0_Brenau_2
