New Load.load_p6ulv245_1 conn=wye bus1=p6ulv245.1 kV=0.12 Vminpu=0.8 Vmaxpu=1.2 model=1 kW=0.97001 kvar=0.19492942577069053 Phases=1

New Load.load_p6ulv245_2 conn=wye bus1=p6ulv245.2 kV=0.12 Vminpu=0.8 Vmaxpu=1.2 model=1 kW=0.97001 kvar=0.19492942577069053 Phases=1

New Load.load_p6ulv246_1 conn=wye bus1=p6ulv246.1 kV=0.12 Vminpu=0.8 Vmaxpu=1.2 model=1 kW=0.680005 kvar=0.13984996089752658 Phases=1

New Load.load_p6ulv246_2 conn=wye bus1=p6ulv246.2 kV=0.12 Vminpu=0.8 Vmaxpu=1.2 model=1 kW=0.680005 kvar=0.13984996089752658 Phases=1

New Load.load_p6ulv247_1 conn=wye bus1=p6ulv247.1 kV=0.12 Vminpu=0.8 Vmaxpu=1.2 model=1 kW=0.91001 kvar=0.18478541176355026 Phases=1

New Load.load_p6ulv247_2 conn=wye bus1=p6ulv247.2 kV=0.12 Vminpu=0.8 Vmaxpu=1.2 model=1 kW=0.91001 kvar=0.18478541176355026 Phases=1

New Load.load_p6ulv248_1 conn=wye bus1=p6ulv248.1 kV=0.12 Vminpu=0.8 Vmaxpu=1.2 model=1 kW=0.715005 kvar=0.14518795764661624 Phases=1

New Load.load_p6ulv248_2 conn=wye bus1=p6ulv248.2 kV=0.12 Vminpu=0.8 Vmaxpu=1.2 model=1 kW=0.715005 kvar=0.14518795764661624 Phases=1

New Load.load_p6ulv249_1 conn=wye bus1=p6ulv249.1 kV=0.12 Vminpu=0.8 Vmaxpu=1.2 model=1 kW=0.88501 kvar=0.18017149277293337 Phases=1

New Load.load_p6ulv249_2 conn=wye bus1=p6ulv249.2 kV=0.12 Vminpu=0.8 Vmaxpu=1.2 model=1 kW=0.88501 kvar=0.18017149277293337 Phases=1

New Load.load_p6ulv250_1 conn=wye bus1=p6ulv250.1 kV=0.12 Vminpu=0.8 Vmaxpu=1.2 model=1 kW=1.13501 kvar=0.22987905269677025 Phases=1

New Load.load_p6ulv250_2 conn=wye bus1=p6ulv250.2 kV=0.12 Vminpu=0.8 Vmaxpu=1.2 model=1 kW=1.13501 kvar=0.22987905269677025 Phases=1

New Load.load_p6ulv251_1 conn=wye bus1=p6ulv251.1 kV=0.12 Vminpu=0.8 Vmaxpu=1.2 model=1 kW=0.535005 kvar=0.11002923262326189 Phases=1

New Load.load_p6ulv251_2 conn=wye bus1=p6ulv251.2 kV=0.12 Vminpu=0.8 Vmaxpu=1.2 model=1 kW=0.535005 kvar=0.11002923262326189 Phases=1

New Load.load_p6ulv252_1 conn=wye bus1=p6ulv252.1 kV=0.12 Vminpu=0.8 Vmaxpu=1.2 model=1 kW=0.76501 kvar=0.154941167129414 Phases=1

New Load.load_p6ulv252_2 conn=wye bus1=p6ulv252.2 kV=0.12 Vminpu=0.8 Vmaxpu=1.2 model=1 kW=0.76501 kvar=0.154941167129414 Phases=1

New Load.load_p6ulv253_1 conn=wye bus1=p6ulv253.1 kV=0.12 Vminpu=0.8 Vmaxpu=1.2 model=1 kW=0.81001 kvar=0.16490289472548758 Phases=1

New Load.load_p6ulv253_2 conn=wye bus1=p6ulv253.2 kV=0.12 Vminpu=0.8 Vmaxpu=1.2 model=1 kW=0.81001 kvar=0.16490289472548758 Phases=1

New Load.load_p6ulv254_1 conn=wye bus1=p6ulv254.1 kV=0.12 Vminpu=0.8 Vmaxpu=1.2 model=1 kW=0.680005 kvar=0.13984996089752658 Phases=1

New Load.load_p6ulv254_2 conn=wye bus1=p6ulv254.2 kV=0.12 Vminpu=0.8 Vmaxpu=1.2 model=1 kW=0.680005 kvar=0.13984996089752658 Phases=1

New Load.load_p6ulv255_1 conn=wye bus1=p6ulv255.1 kV=0.12 Vminpu=0.8 Vmaxpu=1.2 model=1 kW=0.97001 kvar=0.19492942577069053 Phases=1

New Load.load_p6ulv255_2 conn=wye bus1=p6ulv255.2 kV=0.12 Vminpu=0.8 Vmaxpu=1.2 model=1 kW=0.97001 kvar=0.19492942577069053 Phases=1

New Load.load_p6ulv256_1 conn=wye bus1=p6ulv256.1 kV=0.12 Vminpu=0.8 Vmaxpu=1.2 model=1 kW=0.89001 kvar=0.17979073645711227 Phases=1

New Load.load_p6ulv256_2 conn=wye bus1=p6ulv256.2 kV=0.12 Vminpu=0.8 Vmaxpu=1.2 model=1 kW=0.89001 kvar=0.17979073645711227 Phases=1

New Load.load_p6ulv257_1 conn=wye bus1=p6ulv257.1 kV=0.12 Vminpu=0.8 Vmaxpu=1.2 model=1 kW=1.20001 kvar=0.2449253710827086 Phases=1

New Load.load_p6ulv257_2 conn=wye bus1=p6ulv257.2 kV=0.12 Vminpu=0.8 Vmaxpu=1.2 model=1 kW=1.20001 kvar=0.2449253710827086 Phases=1

New Load.load_p6ulv258_1 conn=wye bus1=p6ulv258.1 kV=0.12 Vminpu=0.8 Vmaxpu=1.2 model=1 kW=0.88001 kvar=0.18007035042820305 Phases=1

New Load.load_p6ulv258_2 conn=wye bus1=p6ulv258.2 kV=0.12 Vminpu=0.8 Vmaxpu=1.2 model=1 kW=0.88001 kvar=0.18007035042820305 Phases=1

New Load.load_p6ulv259_1 conn=wye bus1=p6ulv259.1 kV=0.12 Vminpu=0.8 Vmaxpu=1.2 model=1 kW=0.78001 kvar=0.16001297520870603 Phases=1

New Load.load_p6ulv259_2 conn=wye bus1=p6ulv259.2 kV=0.12 Vminpu=0.8 Vmaxpu=1.2 model=1 kW=0.78001 kvar=0.16001297520870603 Phases=1

New Load.load_p6ulv260_1 conn=wye bus1=p6ulv260.1 kV=0.12 Vminpu=0.8 Vmaxpu=1.2 model=1 kW=1.14001 kvar=0.23029318487261108 Phases=1

New Load.load_p6ulv260_2 conn=wye bus1=p6ulv260.2 kV=0.12 Vminpu=0.8 Vmaxpu=1.2 model=1 kW=1.14001 kvar=0.23029318487261108 Phases=1

New Load.load_p6ulv261_1 conn=wye bus1=p6ulv261.1 kV=0.12 Vminpu=0.8 Vmaxpu=1.2 model=1 kW=0.615005 kvar=0.12488209158321581 Phases=1

New Load.load_p6ulv261_2 conn=wye bus1=p6ulv261.2 kV=0.12 Vminpu=0.8 Vmaxpu=1.2 model=1 kW=0.615005 kvar=0.12488209158321581 Phases=1

New Load.load_p6ulv262_1 conn=wye bus1=p6ulv262.1 kV=0.12 Vminpu=0.8 Vmaxpu=1.2 model=1 kW=0.195002 kvar=0.040003141231071515 Phases=1

New Load.load_p6ulv262_2 conn=wye bus1=p6ulv262.2 kV=0.12 Vminpu=0.8 Vmaxpu=1.2 model=1 kW=0.195002 kvar=0.040003141231071515 Phases=1

New Load.load_p6ulv263_1 conn=wye bus1=p6ulv263.1 kV=0.12 Vminpu=0.8 Vmaxpu=1.2 model=1 kW=0.87501 kvar=0.17995472722251266 Phases=1

New Load.load_p6ulv263_2 conn=wye bus1=p6ulv263.2 kV=0.12 Vminpu=0.8 Vmaxpu=1.2 model=1 kW=0.87501 kvar=0.17995472722251266 Phases=1

New Load.load_p6ulv264_1 conn=wye bus1=p6ulv264.1 kV=0.12 Vminpu=0.8 Vmaxpu=1.2 model=1 kW=1.10001 kvar=0.22508742647757143 Phases=1

New Load.load_p6ulv264_2 conn=wye bus1=p6ulv264.2 kV=0.12 Vminpu=0.8 Vmaxpu=1.2 model=1 kW=1.10001 kvar=0.22508742647757143 Phases=1

New Load.load_p6ulv265_1 conn=wye bus1=p6ulv265.1 kV=0.12 Vminpu=0.8 Vmaxpu=1.2 model=1 kW=1.485015 kvar=0.29998757373496765 Phases=1

New Load.load_p6ulv265_2 conn=wye bus1=p6ulv265.2 kV=0.12 Vminpu=0.8 Vmaxpu=1.2 model=1 kW=1.485015 kvar=0.29998757373496765 Phases=1

New Load.load_p6ulv266_1 conn=wye bus1=p6ulv266.1 kV=0.12 Vminpu=0.8 Vmaxpu=1.2 model=1 kW=1.02001 kvar=0.20497723072995336 Phases=1

New Load.load_p6ulv266_2 conn=wye bus1=p6ulv266.2 kV=0.12 Vminpu=0.8 Vmaxpu=1.2 model=1 kW=1.02001 kvar=0.20497723072995336 Phases=1

New Load.load_p6ulv267_1 conn=wye bus1=p6ulv267.1 kV=0.12 Vminpu=0.8 Vmaxpu=1.2 model=1 kW=4.92505 kvar=1.0000740565555026 Phases=1

New Load.load_p6ulv267_2 conn=wye bus1=p6ulv267.2 kV=0.12 Vminpu=0.8 Vmaxpu=1.2 model=1 kW=4.92505 kvar=1.0000740565555026 Phases=1

New Load.load_p6ulv268_1 conn=wye bus1=p6ulv268.1 kV=0.12 Vminpu=0.8 Vmaxpu=1.2 model=1 kW=3.14003 kvar=0.6392514123589496 Phases=1

New Load.load_p6ulv268_2 conn=wye bus1=p6ulv268.2 kV=0.12 Vminpu=0.8 Vmaxpu=1.2 model=1 kW=3.14003 kvar=0.6392514123589496 Phases=1

New Load.load_p6ulv269_1 conn=wye bus1=p6ulv269.1 kV=0.12 Vminpu=0.8 Vmaxpu=1.2 model=1 kW=1.14001 kvar=0.23029318487261108 Phases=1

New Load.load_p6ulv269_2 conn=wye bus1=p6ulv269.2 kV=0.12 Vminpu=0.8 Vmaxpu=1.2 model=1 kW=1.14001 kvar=0.23029318487261108 Phases=1

New Load.load_p6ulv270_1 conn=wye bus1=p6ulv270.1 kV=0.12 Vminpu=0.8 Vmaxpu=1.2 model=1 kW=0.3700035 kvar=0.07493859443924673 Phases=1

New Load.load_p6ulv270_2 conn=wye bus1=p6ulv270.2 kV=0.12 Vminpu=0.8 Vmaxpu=1.2 model=1 kW=0.3700035 kvar=0.07493859443924673 Phases=1

New Load.load_p6ulv271_1 conn=wye bus1=p6ulv271.1 kV=0.12 Vminpu=0.8 Vmaxpu=1.2 model=1 kW=0.4300045 kvar=0.08998040034740605 Phases=1

New Load.load_p6ulv271_2 conn=wye bus1=p6ulv271.2 kV=0.12 Vminpu=0.8 Vmaxpu=1.2 model=1 kW=0.4300045 kvar=0.08998040034740605 Phases=1

New Load.load_p6ulv272_1 conn=wye bus1=p6ulv272.1 kV=0.12 Vminpu=0.8 Vmaxpu=1.2 model=1 kW=0.6600050000000001 kvar=0.13505225126346992 Phases=1

New Load.load_p6ulv272_2 conn=wye bus1=p6ulv272.2 kV=0.12 Vminpu=0.8 Vmaxpu=1.2 model=1 kW=0.6600050000000001 kvar=0.13505225126346992 Phases=1

New Load.load_p6ulv273_1 conn=wye bus1=p6ulv273.1 kV=0.12 Vminpu=0.8 Vmaxpu=1.2 model=1 kW=0.520005 kvar=0.10504610275320578 Phases=1

New Load.load_p6ulv273_2 conn=wye bus1=p6ulv273.2 kV=0.12 Vminpu=0.8 Vmaxpu=1.2 model=1 kW=0.520005 kvar=0.10504610275320578 Phases=1

New Load.load_p6ulv274_1 conn=wye bus1=p6ulv274.1 kV=0.12 Vminpu=0.8 Vmaxpu=1.2 model=1 kW=0.290003 kvar=0.05994151579317487 Phases=1

New Load.load_p6ulv274_2 conn=wye bus1=p6ulv274.2 kV=0.12 Vminpu=0.8 Vmaxpu=1.2 model=1 kW=0.290003 kvar=0.05994151579317487 Phases=1

New Load.load_p6ulv275_1 conn=wye bus1=p6ulv275.1 kV=0.12 Vminpu=0.8 Vmaxpu=1.2 model=1 kW=1.09001 kvar=0.22019269518951132 Phases=1

New Load.load_p6ulv275_2 conn=wye bus1=p6ulv275.2 kV=0.12 Vminpu=0.8 Vmaxpu=1.2 model=1 kW=1.09001 kvar=0.22019269518951132 Phases=1

New Load.load_p6ulv276_1 conn=wye bus1=p6ulv276.1 kV=0.12 Vminpu=0.8 Vmaxpu=1.2 model=1 kW=0.6550050000000001 kvar=0.13504698994678754 Phases=1

New Load.load_p6ulv276_2 conn=wye bus1=p6ulv276.2 kV=0.12 Vminpu=0.8 Vmaxpu=1.2 model=1 kW=0.6550050000000001 kvar=0.13504698994678754 Phases=1

New Load.load_p6ulv277_1 conn=wye bus1=p6ulv277.1 kV=0.12 Vminpu=0.8 Vmaxpu=1.2 model=1 kW=0.78501 kvar=0.1598133620430056 Phases=1

New Load.load_p6ulv277_2 conn=wye bus1=p6ulv277.2 kV=0.12 Vminpu=0.8 Vmaxpu=1.2 model=1 kW=0.78501 kvar=0.1598133620430056 Phases=1

New Load.load_p6ulv278_1 conn=wye bus1=p6ulv278.1 kV=0.12 Vminpu=0.8 Vmaxpu=1.2 model=1 kW=0.76001 kvar=0.15512015006255728 Phases=1

New Load.load_p6ulv278_2 conn=wye bus1=p6ulv278.2 kV=0.12 Vminpu=0.8 Vmaxpu=1.2 model=1 kW=0.76001 kvar=0.15512015006255728 Phases=1

New Load.load_p6ulv279_1 conn=wye bus1=p6ulv279.1 kV=0.12 Vminpu=0.8 Vmaxpu=1.2 model=1 kW=0.91001 kvar=0.18478541176355026 Phases=1

New Load.load_p6ulv279_2 conn=wye bus1=p6ulv279.2 kV=0.12 Vminpu=0.8 Vmaxpu=1.2 model=1 kW=0.91001 kvar=0.18478541176355026 Phases=1

New Load.load_p6ulv280_1 conn=wye bus1=p6ulv280.1 kV=0.12 Vminpu=0.8 Vmaxpu=1.2 model=1 kW=0.645005 kvar=0.12995790014778485 Phases=1

New Load.load_p6ulv280_2 conn=wye bus1=p6ulv280.2 kV=0.12 Vminpu=0.8 Vmaxpu=1.2 model=1 kW=0.645005 kvar=0.12995790014778485 Phases=1

New Load.load_p6ulv281_1 conn=wye bus1=p6ulv281.1 kV=0.12 Vminpu=0.8 Vmaxpu=1.2 model=1 kW=0.585005 kvar=0.12000921855100456 Phases=1

New Load.load_p6ulv281_2 conn=wye bus1=p6ulv281.2 kV=0.12 Vminpu=0.8 Vmaxpu=1.2 model=1 kW=0.585005 kvar=0.12000921855100456 Phases=1

New Load.load_p6ulv282_1 conn=wye bus1=p6ulv282.1 kV=0.12 Vminpu=0.8 Vmaxpu=1.2 model=1 kW=1.2650150000000002 kvar=0.25487971884783844 Phases=1

New Load.load_p6ulv282_2 conn=wye bus1=p6ulv282.2 kV=0.12 Vminpu=0.8 Vmaxpu=1.2 model=1 kW=1.2650150000000002 kvar=0.25487971884783844 Phases=1

New Load.load_p6ulv283_1 conn=wye bus1=p6ulv283.1 kV=0.12 Vminpu=0.8 Vmaxpu=1.2 model=1 kW=0.5250050000000002 kvar=0.10494718716257527 Phases=1

New Load.load_p6ulv283_2 conn=wye bus1=p6ulv283.2 kV=0.12 Vminpu=0.8 Vmaxpu=1.2 model=1 kW=0.5250050000000002 kvar=0.10494718716257527 Phases=1

New Load.load_p6ulv284_1 conn=wye bus1=p6ulv284.1 kV=0.12 Vminpu=0.8 Vmaxpu=1.2 model=1 kW=0.85001 kvar=0.1699148742584558 Phases=1

New Load.load_p6ulv284_2 conn=wye bus1=p6ulv284.2 kV=0.12 Vminpu=0.8 Vmaxpu=1.2 model=1 kW=0.85001 kvar=0.1699148742584558 Phases=1

New Load.load_p6ulv285_1 conn=wye bus1=p6ulv285.1 kV=0.12 Vminpu=0.8 Vmaxpu=1.2 model=1 kW=0.400004 kvar=0.07995979972339073 Phases=1

New Load.load_p6ulv285_2 conn=wye bus1=p6ulv285.2 kV=0.12 Vminpu=0.8 Vmaxpu=1.2 model=1 kW=0.400004 kvar=0.07995979972339073 Phases=1

New Load.load_p6ulv286_1 conn=wye bus1=p6ulv286.1 kV=0.12 Vminpu=0.8 Vmaxpu=1.2 model=1 kW=0.91001 kvar=0.18478541176355026 Phases=1

New Load.load_p6ulv286_2 conn=wye bus1=p6ulv286.2 kV=0.12 Vminpu=0.8 Vmaxpu=1.2 model=1 kW=0.91001 kvar=0.18478541176355026 Phases=1

New Load.load_p6ulv287_1 conn=wye bus1=p6ulv287.1 kV=0.12 Vminpu=0.8 Vmaxpu=1.2 model=1 kW=0.8700100000000001 kvar=0.1748338158521649 Phases=1

New Load.load_p6ulv287_2 conn=wye bus1=p6ulv287.2 kV=0.12 Vminpu=0.8 Vmaxpu=1.2 model=1 kW=0.8700100000000001 kvar=0.1748338158521649 Phases=1

New Load.load_p6ulv288_1 conn=wye bus1=p6ulv288.1 kV=0.12 Vminpu=0.8 Vmaxpu=1.2 model=1 kW=0.78001 kvar=0.16001297520870603 Phases=1

New Load.load_p6ulv288_2 conn=wye bus1=p6ulv288.2 kV=0.12 Vminpu=0.8 Vmaxpu=1.2 model=1 kW=0.78001 kvar=0.16001297520870603 Phases=1

New Load.load_p6ulv289_1 conn=wye bus1=p6ulv289.1 kV=0.12 Vminpu=0.8 Vmaxpu=1.2 model=1 kW=0.555005 kvar=0.1150011013333981 Phases=1

New Load.load_p6ulv289_2 conn=wye bus1=p6ulv289.2 kV=0.12 Vminpu=0.8 Vmaxpu=1.2 model=1 kW=0.555005 kvar=0.1150011013333981 Phases=1

New Load.load_p6ulv290_1 conn=wye bus1=p6ulv290.1 kV=0.12 Vminpu=0.8 Vmaxpu=1.2 model=1 kW=0.615005 kvar=0.12488209158321581 Phases=1

New Load.load_p6ulv290_2 conn=wye bus1=p6ulv290.2 kV=0.12 Vminpu=0.8 Vmaxpu=1.2 model=1 kW=0.615005 kvar=0.12488209158321581 Phases=1

New Load.load_p6ulv291_1 conn=wye bus1=p6ulv291.1 kV=0.12 Vminpu=0.8 Vmaxpu=1.2 model=1 kW=1.04501 kvar=0.21000113320958477 Phases=1

New Load.load_p6ulv291_2 conn=wye bus1=p6ulv291.2 kV=0.12 Vminpu=0.8 Vmaxpu=1.2 model=1 kW=1.04501 kvar=0.21000113320958477 Phases=1

New Load.load_p6ulv292_1 conn=wye bus1=p6ulv292.1 kV=0.12 Vminpu=0.8 Vmaxpu=1.2 model=1 kW=0.89001 kvar=0.17979073645711227 Phases=1

New Load.load_p6ulv292_2 conn=wye bus1=p6ulv292.2 kV=0.12 Vminpu=0.8 Vmaxpu=1.2 model=1 kW=0.89001 kvar=0.17979073645711227 Phases=1

New Load.load_p6ulv293_1 conn=wye bus1=p6ulv293.1 kV=0.12 Vminpu=0.8 Vmaxpu=1.2 model=1 kW=0.85501 kvar=0.17495477360441117 Phases=1

New Load.load_p6ulv293_2 conn=wye bus1=p6ulv293.2 kV=0.12 Vminpu=0.8 Vmaxpu=1.2 model=1 kW=0.85501 kvar=0.17495477360441117 Phases=1

New Load.load_p6ulv294_1 conn=wye bus1=p6ulv294.1 kV=0.12 Vminpu=0.8 Vmaxpu=1.2 model=1 kW=0.620005 kvar=0.1249208112822805 Phases=1

New Load.load_p6ulv294_2 conn=wye bus1=p6ulv294.2 kV=0.12 Vminpu=0.8 Vmaxpu=1.2 model=1 kW=0.620005 kvar=0.1249208112822805 Phases=1

New Load.load_p6ulv295_1 conn=wye bus1=p6ulv295.1 kV=0.12 Vminpu=0.8 Vmaxpu=1.2 model=1 kW=1.13501 kvar=0.22987905269677025 Phases=1

New Load.load_p6ulv295_2 conn=wye bus1=p6ulv295.2 kV=0.12 Vminpu=0.8 Vmaxpu=1.2 model=1 kW=1.13501 kvar=0.22987905269677025 Phases=1

New Load.load_p6ulv296_1 conn=wye bus1=p6ulv296.1 kV=0.12 Vminpu=0.8 Vmaxpu=1.2 model=1 kW=0.76501 kvar=0.154941167129414 Phases=1

New Load.load_p6ulv296_2 conn=wye bus1=p6ulv296.2 kV=0.12 Vminpu=0.8 Vmaxpu=1.2 model=1 kW=0.76501 kvar=0.154941167129414 Phases=1

New Load.load_p6ulv297_1 conn=wye bus1=p6ulv297.1 kV=0.12 Vminpu=0.8 Vmaxpu=1.2 model=1 kW=0.565005 kvar=0.11502445653062815 Phases=1

New Load.load_p6ulv297_2 conn=wye bus1=p6ulv297.2 kV=0.12 Vminpu=0.8 Vmaxpu=1.2 model=1 kW=0.565005 kvar=0.11502445653062815 Phases=1

New Load.load_p6ulv298_1 conn=wye bus1=p6ulv298.1 kV=0.12 Vminpu=0.8 Vmaxpu=1.2 model=1 kW=0.405004 kvar=0.08009572620981252 Phases=1

New Load.load_p6ulv298_2 conn=wye bus1=p6ulv298.2 kV=0.12 Vminpu=0.8 Vmaxpu=1.2 model=1 kW=0.405004 kvar=0.08009572620981252 Phases=1

New Load.load_p6ulv299_1 conn=wye bus1=p6ulv299.1 kV=0.12 Vminpu=0.8 Vmaxpu=1.2 model=1 kW=0.585005 kvar=0.12000921855100456 Phases=1

New Load.load_p6ulv299_2 conn=wye bus1=p6ulv299.2 kV=0.12 Vminpu=0.8 Vmaxpu=1.2 model=1 kW=0.585005 kvar=0.12000921855100456 Phases=1

New Load.load_p6ulv300_1 conn=wye bus1=p6ulv300.1 kV=0.12 Vminpu=0.8 Vmaxpu=1.2 model=1 kW=0.695005 kvar=0.14003207787879351 Phases=1

New Load.load_p6ulv300_2 conn=wye bus1=p6ulv300.2 kV=0.12 Vminpu=0.8 Vmaxpu=1.2 model=1 kW=0.695005 kvar=0.14003207787879351 Phases=1

New Load.load_p6ulv301_1 conn=wye bus1=p6ulv301.1 kV=0.12 Vminpu=0.8 Vmaxpu=1.2 model=1 kW=8.1601 kvar=1.6569789766395384 Phases=1

New Load.load_p6ulv301_2 conn=wye bus1=p6ulv301.2 kV=0.12 Vminpu=0.8 Vmaxpu=1.2 model=1 kW=8.1601 kvar=1.6569789766395384 Phases=1

New Load.load_p6ulv302_1 conn=wye bus1=p6ulv302.1 kV=0.12 Vminpu=0.8 Vmaxpu=1.2 model=1 kW=1.08001 kvar=0.21986984769629242 Phases=1

New Load.load_p6ulv302_2 conn=wye bus1=p6ulv302.2 kV=0.12 Vminpu=0.8 Vmaxpu=1.2 model=1 kW=1.08001 kvar=0.21986984769629242 Phases=1

New Load.load_p6ulv303_1 conn=wye bus1=p6ulv303.1 kV=0.12 Vminpu=0.8 Vmaxpu=1.2 model=1 kW=1.05501 kvar=0.21478031501381048 Phases=1

New Load.load_p6ulv303_2 conn=wye bus1=p6ulv303.2 kV=0.12 Vminpu=0.8 Vmaxpu=1.2 model=1 kW=1.05501 kvar=0.21478031501381048 Phases=1

New Load.load_p6ulv304_1 conn=wye bus1=p6ulv304.1 kV=0.12 Vminpu=0.8 Vmaxpu=1.2 model=1 kW=0.88001 kvar=0.18007035042820305 Phases=1

New Load.load_p6ulv304_2 conn=wye bus1=p6ulv304.2 kV=0.12 Vminpu=0.8 Vmaxpu=1.2 model=1 kW=0.88001 kvar=0.18007035042820305 Phases=1

New Load.load_p6ulv305_1 conn=wye bus1=p6ulv305.1 kV=0.12 Vminpu=0.8 Vmaxpu=1.2 model=1 kW=0.580005 kvar=0.11501512679758837 Phases=1

New Load.load_p6ulv305_2 conn=wye bus1=p6ulv305.2 kV=0.12 Vminpu=0.8 Vmaxpu=1.2 model=1 kW=0.580005 kvar=0.11501512679758837 Phases=1

New Load.load_p6ulv306_1 conn=wye bus1=p6ulv306.1 kV=0.12 Vminpu=0.8 Vmaxpu=1.2 model=1 kW=0.725005 kvar=0.14492668722926993 Phases=1

New Load.load_p6ulv306_2 conn=wye bus1=p6ulv306.2 kV=0.12 Vminpu=0.8 Vmaxpu=1.2 model=1 kW=0.725005 kvar=0.14492668722926993 Phases=1

New Load.load_p6ulv307_1 conn=wye bus1=p6ulv307.1 kV=0.12 Vminpu=0.8 Vmaxpu=1.2 model=1 kW=0.75001 kvar=0.14992512422510845 Phases=1

New Load.load_p6ulv307_2 conn=wye bus1=p6ulv307.2 kV=0.12 Vminpu=0.8 Vmaxpu=1.2 model=1 kW=0.75001 kvar=0.14992512422510845 Phases=1

New Load.load_p6ulv308_1 conn=wye bus1=p6ulv308.1 kV=0.12 Vminpu=0.8 Vmaxpu=1.2 model=1 kW=0.390004 kvar=0.08000628246214303 Phases=1

New Load.load_p6ulv308_2 conn=wye bus1=p6ulv308.2 kV=0.12 Vminpu=0.8 Vmaxpu=1.2 model=1 kW=0.390004 kvar=0.08000628246214303 Phases=1

New Load.load_p6ulv309_1 conn=wye bus1=p6ulv309.1 kV=0.12 Vminpu=0.8 Vmaxpu=1.2 model=1 kW=0.91001 kvar=0.18478541176355026 Phases=1

New Load.load_p6ulv309_2 conn=wye bus1=p6ulv309.2 kV=0.12 Vminpu=0.8 Vmaxpu=1.2 model=1 kW=0.91001 kvar=0.18478541176355026 Phases=1

New Load.load_p6ulv310_1 conn=wye bus1=p6ulv310.1 kV=0.12 Vminpu=0.8 Vmaxpu=1.2 model=1 kW=0.93001 kvar=0.18981762182034304 Phases=1

New Load.load_p6ulv310_2 conn=wye bus1=p6ulv310.2 kV=0.12 Vminpu=0.8 Vmaxpu=1.2 model=1 kW=0.93001 kvar=0.18981762182034304 Phases=1

New Load.load_p6ulv311_1 conn=wye bus1=p6ulv311.1 kV=0.12 Vminpu=0.8 Vmaxpu=1.2 model=1 kW=0.84501 kvar=0.16980991337253348 Phases=1

New Load.load_p6ulv311_2 conn=wye bus1=p6ulv311.2 kV=0.12 Vminpu=0.8 Vmaxpu=1.2 model=1 kW=0.84501 kvar=0.16980991337253348 Phases=1

New Load.load_p6ulv312_1 conn=wye bus1=p6ulv312.1 kV=0.12 Vminpu=0.8 Vmaxpu=1.2 model=1 kW=1.385015 kvar=0.2797865943687682 Phases=1

New Load.load_p6ulv312_2 conn=wye bus1=p6ulv312.2 kV=0.12 Vminpu=0.8 Vmaxpu=1.2 model=1 kW=1.385015 kvar=0.2797865943687682 Phases=1

New Load.load_p6ulv313_1 conn=wye bus1=p6ulv313.1 kV=0.12 Vminpu=0.8 Vmaxpu=1.2 model=1 kW=1.10001 kvar=0.22508742647757143 Phases=1

New Load.load_p6ulv313_2 conn=wye bus1=p6ulv313.2 kV=0.12 Vminpu=0.8 Vmaxpu=1.2 model=1 kW=1.10001 kvar=0.22508742647757143 Phases=1

New Load.load_p6ulv314_1 conn=wye bus1=p6ulv314.1 kV=0.12 Vminpu=0.8 Vmaxpu=1.2 model=1 kW=0.745005 kvar=0.15010625560980215 Phases=1

New Load.load_p6ulv314_2 conn=wye bus1=p6ulv314.2 kV=0.12 Vminpu=0.8 Vmaxpu=1.2 model=1 kW=0.745005 kvar=0.15010625560980215 Phases=1

New Load.load_p6ulv315_1 conn=wye bus1=p6ulv315.1 kV=0.12 Vminpu=0.8 Vmaxpu=1.2 model=1 kW=0.91001 kvar=0.18478541176355026 Phases=1

New Load.load_p6ulv315_2 conn=wye bus1=p6ulv315.2 kV=0.12 Vminpu=0.8 Vmaxpu=1.2 model=1 kW=0.91001 kvar=0.18478541176355026 Phases=1

New Load.load_p6ulv316_1 conn=wye bus1=p6ulv316.1 kV=0.12 Vminpu=0.8 Vmaxpu=1.2 model=1 kW=0.81001 kvar=0.16490289472548758 Phases=1

New Load.load_p6ulv316_2 conn=wye bus1=p6ulv316.2 kV=0.12 Vminpu=0.8 Vmaxpu=1.2 model=1 kW=0.81001 kvar=0.16490289472548758 Phases=1

New Load.load_p6ulv317_1 conn=wye bus1=p6ulv317.1 kV=0.12 Vminpu=0.8 Vmaxpu=1.2 model=1 kW=2.00002 kvar=0.4050737024119563 Phases=1

New Load.load_p6ulv317_2 conn=wye bus1=p6ulv317.2 kV=0.12 Vminpu=0.8 Vmaxpu=1.2 model=1 kW=2.00002 kvar=0.4050737024119563 Phases=1

New Load.load_p6ulv318_1 conn=wye bus1=p6ulv318.1 kV=0.12 Vminpu=0.8 Vmaxpu=1.2 model=1 kW=0.415004 kvar=0.0849193937672367 Phases=1

New Load.load_p6ulv318_2 conn=wye bus1=p6ulv318.2 kV=0.12 Vminpu=0.8 Vmaxpu=1.2 model=1 kW=0.415004 kvar=0.0849193937672367 Phases=1

New Load.load_p6ulv319_1 conn=wye bus1=p6ulv319.1 kV=0.12 Vminpu=0.8 Vmaxpu=1.2 model=1 kW=1.09001 kvar=0.22019269518951132 Phases=1

New Load.load_p6ulv319_2 conn=wye bus1=p6ulv319.2 kV=0.12 Vminpu=0.8 Vmaxpu=1.2 model=1 kW=1.09001 kvar=0.22019269518951132 Phases=1

New Load.load_p6ulv320_1 conn=wye bus1=p6ulv320.1 kV=0.12 Vminpu=0.8 Vmaxpu=1.2 model=1 kW=0.410004 kvar=0.08495583202151072 Phases=1

New Load.load_p6ulv320_2 conn=wye bus1=p6ulv320.2 kV=0.12 Vminpu=0.8 Vmaxpu=1.2 model=1 kW=0.410004 kvar=0.08495583202151072 Phases=1

New Load.load_p6ulv321_1 conn=wye bus1=p6ulv321.1 kV=0.12 Vminpu=0.8 Vmaxpu=1.2 model=1 kW=1.355015 kvar=0.2751475310389853 Phases=1

New Load.load_p6ulv321_2 conn=wye bus1=p6ulv321.2 kV=0.12 Vminpu=0.8 Vmaxpu=1.2 model=1 kW=1.355015 kvar=0.2751475310389853 Phases=1

New Load.load_p6ulv322_1 conn=wye bus1=p6ulv322.1 kV=0.12 Vminpu=0.8 Vmaxpu=1.2 model=1 kW=1.1850100000000001 kvar=0.24000579398965624 Phases=1

New Load.load_p6ulv322_2 conn=wye bus1=p6ulv322.2 kV=0.12 Vminpu=0.8 Vmaxpu=1.2 model=1 kW=1.1850100000000001 kvar=0.24000579398965624 Phases=1

New Load.load_p6ulv323_1 conn=wye bus1=p6ulv323.1 kV=0.12 Vminpu=0.8 Vmaxpu=1.2 model=1 kW=0.3700035 kvar=0.07493859443924673 Phases=1

New Load.load_p6ulv323_2 conn=wye bus1=p6ulv323.2 kV=0.12 Vminpu=0.8 Vmaxpu=1.2 model=1 kW=0.3700035 kvar=0.07493859443924673 Phases=1

New Load.load_p6ulv324_1 conn=wye bus1=p6ulv324.1 kV=0.12 Vminpu=0.8 Vmaxpu=1.2 model=1 kW=0.400004 kvar=0.07995979972339073 Phases=1

New Load.load_p6ulv324_2 conn=wye bus1=p6ulv324.2 kV=0.12 Vminpu=0.8 Vmaxpu=1.2 model=1 kW=0.400004 kvar=0.07995979972339073 Phases=1

New Load.load_p6ulv325_1 conn=wye bus1=p6ulv325.1 kV=0.12 Vminpu=0.8 Vmaxpu=1.2 model=1 kW=1.13501 kvar=0.22987905269677025 Phases=1

New Load.load_p6ulv325_2 conn=wye bus1=p6ulv325.2 kV=0.12 Vminpu=0.8 Vmaxpu=1.2 model=1 kW=1.13501 kvar=0.22987905269677025 Phases=1

New Load.load_p6ulv326_1 conn=wye bus1=p6ulv324.1 kV=0.12 Vminpu=0.8 Vmaxpu=1.2 model=1 kW=1.695015 kvar=0.34507336959188445 Phases=1

New Load.load_p6ulv326_2 conn=wye bus1=p6ulv324.2 kV=0.12 Vminpu=0.8 Vmaxpu=1.2 model=1 kW=1.695015 kvar=0.34507336959188445 Phases=1

New Load.load_p6ulv327_1 conn=wye bus1=p6ulv327.1 kV=0.12 Vminpu=0.8 Vmaxpu=1.2 model=1 kW=0.680005 kvar=0.13984996089752658 Phases=1

New Load.load_p6ulv327_2 conn=wye bus1=p6ulv327.2 kV=0.12 Vminpu=0.8 Vmaxpu=1.2 model=1 kW=0.680005 kvar=0.13984996089752658 Phases=1

New Load.load_p6ulv328_1 conn=wye bus1=p6ulv328.1 kV=0.12 Vminpu=0.8 Vmaxpu=1.2 model=1 kW=0.81001 kvar=0.16490289472548758 Phases=1

New Load.load_p6ulv328_2 conn=wye bus1=p6ulv328.2 kV=0.12 Vminpu=0.8 Vmaxpu=1.2 model=1 kW=0.81001 kvar=0.16490289472548758 Phases=1

New Load.load_p6ulv329_1 conn=wye bus1=p6ulv329.1 kV=0.12 Vminpu=0.8 Vmaxpu=1.2 model=1 kW=1.480015 kvar=0.2997545802918128 Phases=1

New Load.load_p6ulv329_2 conn=wye bus1=p6ulv329.2 kV=0.12 Vminpu=0.8 Vmaxpu=1.2 model=1 kW=1.480015 kvar=0.2997545802918128 Phases=1

New Load.load_p6ulv330_1 conn=wye bus1=p6ulv330.1 kV=0.12 Vminpu=0.8 Vmaxpu=1.2 model=1 kW=1.325015 kvar=0.26974828589115185 Phases=1

New Load.load_p6ulv330_2 conn=wye bus1=p6ulv330.2 kV=0.12 Vminpu=0.8 Vmaxpu=1.2 model=1 kW=1.325015 kvar=0.26974828589115185 Phases=1

New Load.load_p6ulv331_1 conn=wye bus1=p6ulv331.1 kV=0.12 Vminpu=0.8 Vmaxpu=1.2 model=1 kW=1.285015 kvar=0.2602602892495575 Phases=1

New Load.load_p6ulv331_2 conn=wye bus1=p6ulv331.2 kV=0.12 Vminpu=0.8 Vmaxpu=1.2 model=1 kW=1.285015 kvar=0.2602602892495575 Phases=1

New Load.load_p6ulv332_1 conn=wye bus1=p6ulv332.1 kV=0.12 Vminpu=0.8 Vmaxpu=1.2 model=1 kW=0.79001 kvar=0.16000453777585702 Phases=1

New Load.load_p6ulv332_2 conn=wye bus1=p6ulv332.2 kV=0.12 Vminpu=0.8 Vmaxpu=1.2 model=1 kW=0.79001 kvar=0.16000453777585702 Phases=1

New Load.load_p6ulv333_1 conn=wye bus1=p6ulv332.1 kV=0.12 Vminpu=0.8 Vmaxpu=1.2 model=1 kW=0.82001 kvar=0.16478601089290207 Phases=1

New Load.load_p6ulv333_2 conn=wye bus1=p6ulv332.2 kV=0.12 Vminpu=0.8 Vmaxpu=1.2 model=1 kW=0.82001 kvar=0.16478601089290207 Phases=1

New Load.load_p6ulv334_1 conn=wye bus1=p6ulv334.1 kV=0.12 Vminpu=0.8 Vmaxpu=1.2 model=1 kW=0.29500300000000007 kvar=0.060057096397208694 Phases=1

New Load.load_p6ulv334_2 conn=wye bus1=p6ulv334.2 kV=0.12 Vminpu=0.8 Vmaxpu=1.2 model=1 kW=0.29500300000000007 kvar=0.060057096397208694 Phases=1

New Load.load_p6ulv335_1 conn=wye bus1=p6ulv335.1 kV=0.12 Vminpu=0.8 Vmaxpu=1.2 model=1 kW=0.89501 kvar=0.17985771833179628 Phases=1

New Load.load_p6ulv335_2 conn=wye bus1=p6ulv335.2 kV=0.12 Vminpu=0.8 Vmaxpu=1.2 model=1 kW=0.89501 kvar=0.17985771833179628 Phases=1

New Load.load_p6ulv336_1 conn=wye bus1=p6ulv336.1 kV=0.12 Vminpu=0.8 Vmaxpu=1.2 model=1 kW=0.84501 kvar=0.16980991337253348 Phases=1

New Load.load_p6ulv336_2 conn=wye bus1=p6ulv336.2 kV=0.12 Vminpu=0.8 Vmaxpu=1.2 model=1 kW=0.84501 kvar=0.16980991337253348 Phases=1

New Load.load_p6ulv337_1 conn=wye bus1=p6ulv337.1 kV=0.12 Vminpu=0.8 Vmaxpu=1.2 model=1 kW=0.4350045 kvar=0.0899122736897623 Phases=1

New Load.load_p6ulv337_2 conn=wye bus1=p6ulv337.2 kV=0.12 Vminpu=0.8 Vmaxpu=1.2 model=1 kW=0.4350045 kvar=0.0899122736897623 Phases=1

New Load.load_p6ulv338_1 conn=wye bus1=p6ulv338.1 kV=0.12 Vminpu=0.8 Vmaxpu=1.2 model=1 kW=0.85001 kvar=0.1699148742584558 Phases=1

New Load.load_p6ulv338_2 conn=wye bus1=p6ulv338.2 kV=0.12 Vminpu=0.8 Vmaxpu=1.2 model=1 kW=0.85001 kvar=0.1699148742584558 Phases=1

New Load.load_p6ulv339_1 conn=wye bus1=p6ulv339.1 kV=0.12 Vminpu=0.8 Vmaxpu=1.2 model=1 kW=0.49500500000000003 kvar=0.09999585791165591 Phases=1

New Load.load_p6ulv339_2 conn=wye bus1=p6ulv339.2 kV=0.12 Vminpu=0.8 Vmaxpu=1.2 model=1 kW=0.49500500000000003 kvar=0.09999585791165591 Phases=1

New Load.load_p6ulv340_1 conn=wye bus1=p6ulv340.1 kV=0.12 Vminpu=0.8 Vmaxpu=1.2 model=1 kW=0.585005 kvar=0.12000921855100456 Phases=1

New Load.load_p6ulv340_2 conn=wye bus1=p6ulv340.2 kV=0.12 Vminpu=0.8 Vmaxpu=1.2 model=1 kW=0.585005 kvar=0.12000921855100456 Phases=1

New Load.load_p6ulv341_1 conn=wye bus1=p6ulv341.1 kV=0.12 Vminpu=0.8 Vmaxpu=1.2 model=1 kW=0.720005 kvar=0.14506916674429784 Phases=1

New Load.load_p6ulv341_2 conn=wye bus1=p6ulv341.2 kV=0.12 Vminpu=0.8 Vmaxpu=1.2 model=1 kW=0.720005 kvar=0.14506916674429784 Phases=1

New Load.load_p6ulv342_1 conn=wye bus1=p6ulv342.1 kV=0.12 Vminpu=0.8 Vmaxpu=1.2 model=1 kW=0.85501 kvar=0.17495477360441117 Phases=1

New Load.load_p6ulv342_2 conn=wye bus1=p6ulv342.2 kV=0.12 Vminpu=0.8 Vmaxpu=1.2 model=1 kW=0.85501 kvar=0.17495477360441117 Phases=1

New Load.load_p6ulv343_1 conn=wye bus1=p6ulv343.1 kV=0.12 Vminpu=0.8 Vmaxpu=1.2 model=1 kW=1.285015 kvar=0.2602602892495575 Phases=1

New Load.load_p6ulv343_2 conn=wye bus1=p6ulv343.2 kV=0.12 Vminpu=0.8 Vmaxpu=1.2 model=1 kW=1.285015 kvar=0.2602602892495575 Phases=1

New Load.load_p6ulv344_1 conn=wye bus1=p6ulv344.1 kV=0.12 Vminpu=0.8 Vmaxpu=1.2 model=1 kW=1.04001 kvar=0.21009220550641156 Phases=1

New Load.load_p6ulv344_2 conn=wye bus1=p6ulv344.2 kV=0.12 Vminpu=0.8 Vmaxpu=1.2 model=1 kW=1.04001 kvar=0.21009220550641156 Phases=1

New Load.load_p6ulv345_1 conn=wye bus1=p6ulv345.1 kV=0.12 Vminpu=0.8 Vmaxpu=1.2 model=1 kW=0.81501 kvar=0.1650679084223 Phases=1

New Load.load_p6ulv345_2 conn=wye bus1=p6ulv345.2 kV=0.12 Vminpu=0.8 Vmaxpu=1.2 model=1 kW=0.81501 kvar=0.1650679084223 Phases=1

New Load.load_p6ulv346_1 conn=wye bus1=p6ulv345.1 kV=0.12 Vminpu=0.8 Vmaxpu=1.2 model=1 kW=0.81501 kvar=0.1650679084223 Phases=1

New Load.load_p6ulv346_2 conn=wye bus1=p6ulv345.2 kV=0.12 Vminpu=0.8 Vmaxpu=1.2 model=1 kW=0.81501 kvar=0.1650679084223 Phases=1

New Load.load_p6ulv347_1 conn=wye bus1=p6ulv347.1 kV=0.12 Vminpu=0.8 Vmaxpu=1.2 model=1 kW=0.83501 kvar=0.1699924274079695 Phases=1

New Load.load_p6ulv347_2 conn=wye bus1=p6ulv347.2 kV=0.12 Vminpu=0.8 Vmaxpu=1.2 model=1 kW=0.83501 kvar=0.1699924274079695 Phases=1

New Load.load_p6ulv348_1 conn=wye bus1=p6ulv348.1 kV=0.12 Vminpu=0.8 Vmaxpu=1.2 model=1 kW=0.9850100000000002 kvar=0.2000148113111006 Phases=1

New Load.load_p6ulv348_2 conn=wye bus1=p6ulv348.2 kV=0.12 Vminpu=0.8 Vmaxpu=1.2 model=1 kW=0.9850100000000002 kvar=0.2000148113111006 Phases=1

New Load.load_p6ulv349_1 conn=wye bus1=p6ulv349.1 kV=0.12 Vminpu=0.8 Vmaxpu=1.2 model=1 kW=0.87501 kvar=0.17995472722251266 Phases=1

New Load.load_p6ulv349_2 conn=wye bus1=p6ulv349.2 kV=0.12 Vminpu=0.8 Vmaxpu=1.2 model=1 kW=0.87501 kvar=0.17995472722251266 Phases=1

New Load.load_p6ulv350_1 conn=wye bus1=p6ulv350.1 kV=0.12 Vminpu=0.8 Vmaxpu=1.2 model=1 kW=0.695005 kvar=0.14003207787879351 Phases=1

New Load.load_p6ulv350_2 conn=wye bus1=p6ulv350.2 kV=0.12 Vminpu=0.8 Vmaxpu=1.2 model=1 kW=0.695005 kvar=0.14003207787879351 Phases=1

New Load.load_p6ulv351_1 conn=wye bus1=p6ulv351.1 kV=0.12 Vminpu=0.8 Vmaxpu=1.2 model=1 kW=6.005050000000001 kvar=1.2193774100402275 Phases=1

New Load.load_p6ulv351_2 conn=wye bus1=p6ulv351.2 kV=0.12 Vminpu=0.8 Vmaxpu=1.2 model=1 kW=6.005050000000001 kvar=1.2193774100402275 Phases=1

New Load.load_p6ulv352_1 conn=wye bus1=p6ulv352.1 kV=0.12 Vminpu=0.8 Vmaxpu=1.2 model=1 kW=1.08501 kvar=0.2197523114038843 Phases=1

New Load.load_p6ulv352_2 conn=wye bus1=p6ulv352.2 kV=0.12 Vminpu=0.8 Vmaxpu=1.2 model=1 kW=1.08501 kvar=0.2197523114038843 Phases=1

New Load.load_p6ulv353_1 conn=wye bus1=p6ulv353.1 kV=0.12 Vminpu=0.8 Vmaxpu=1.2 model=1 kW=0.88001 kvar=0.18007035042820305 Phases=1

New Load.load_p6ulv353_2 conn=wye bus1=p6ulv353.2 kV=0.12 Vminpu=0.8 Vmaxpu=1.2 model=1 kW=0.88001 kvar=0.18007035042820305 Phases=1

New Load.load_p6ulv354_1 conn=wye bus1=p6ulv354.1 kV=0.12 Vminpu=0.8 Vmaxpu=1.2 model=1 kW=5.18005 kvar=1.0491405246842802 Phases=1

New Load.load_p6ulv354_2 conn=wye bus1=p6ulv354.2 kV=0.12 Vminpu=0.8 Vmaxpu=1.2 model=1 kW=5.18005 kvar=1.0491405246842802 Phases=1

New Load.load_p6ulv355_1 conn=wye bus1=p6ulv355.1 kV=0.12 Vminpu=0.8 Vmaxpu=1.2 model=1 kW=2.00502 kvar=0.4050336764881735 Phases=1

New Load.load_p6ulv355_2 conn=wye bus1=p6ulv355.2 kV=0.12 Vminpu=0.8 Vmaxpu=1.2 model=1 kW=2.00502 kvar=0.4050336764881735 Phases=1
