New Load.load_p6ulv12413_1 conn=wye bus1=p6ulv12413.1 kV=0.12 Vminpu=0.8 Vmaxpu=1.2 model=1 kW=0.4400045 kvar=0.09003507290256504 Phases=1

New Load.load_p6ulv12413_2 conn=wye bus1=p6ulv12413.2 kV=0.12 Vminpu=0.8 Vmaxpu=1.2 model=1 kW=0.4400045 kvar=0.09003507290256504 Phases=1

New Load.load_p6ulv12414_1 conn=wye bus1=p6ulv12414.1 kV=0.12 Vminpu=0.8 Vmaxpu=1.2 model=1 kW=1.18001 kvar=0.24022797842622015 Phases=1

New Load.load_p6ulv12414_2 conn=wye bus1=p6ulv12414.2 kV=0.12 Vminpu=0.8 Vmaxpu=1.2 model=1 kW=1.18001 kvar=0.24022797842622015 Phases=1

New Load.load_p6ulv12415_1 conn=wye bus1=p6ulv12415.1 kV=0.12 Vminpu=0.8 Vmaxpu=1.2 model=1 kW=0.6550050000000001 kvar=0.13504698994678754 Phases=1

New Load.load_p6ulv12415_2 conn=wye bus1=p6ulv12415.2 kV=0.12 Vminpu=0.8 Vmaxpu=1.2 model=1 kW=0.6550050000000001 kvar=0.13504698994678754 Phases=1

New Load.load_p6ulv12416_1 conn=wye bus1=p6ulv12416.1 kV=0.12 Vminpu=0.8 Vmaxpu=1.2 model=1 kW=0.4350045 kvar=0.0899122736897623 Phases=1

New Load.load_p6ulv12416_2 conn=wye bus1=p6ulv12416.2 kV=0.12 Vminpu=0.8 Vmaxpu=1.2 model=1 kW=0.4350045 kvar=0.0899122736897623 Phases=1

New Load.load_p6ulv12417_1 conn=wye bus1=p6ulv12417.1 kV=0.12 Vminpu=0.8 Vmaxpu=1.2 model=1 kW=1.355015 kvar=0.2751475310389853 Phases=1

New Load.load_p6ulv12417_2 conn=wye bus1=p6ulv12417.2 kV=0.12 Vminpu=0.8 Vmaxpu=1.2 model=1 kW=1.355015 kvar=0.2751475310389853 Phases=1

New Load.load_p6ulv12418_1 conn=wye bus1=p6ulv12418.1 kV=0.12 Vminpu=0.8 Vmaxpu=1.2 model=1 kW=0.565005 kvar=0.11502445653062815 Phases=1

New Load.load_p6ulv12418_2 conn=wye bus1=p6ulv12418.2 kV=0.12 Vminpu=0.8 Vmaxpu=1.2 model=1 kW=0.565005 kvar=0.11502445653062815 Phases=1

New Load.load_p6ulv12419_1 conn=wye bus1=p6ulv12419.1 kV=0.12 Vminpu=0.8 Vmaxpu=1.2 model=1 kW=0.3700035 kvar=0.07493859443924673 Phases=1

New Load.load_p6ulv12419_2 conn=wye bus1=p6ulv12419.2 kV=0.12 Vminpu=0.8 Vmaxpu=1.2 model=1 kW=0.3700035 kvar=0.07493859443924673 Phases=1

New Load.load_p6ulv12420_1 conn=wye bus1=p6ulv12420.1 kV=0.12 Vminpu=0.8 Vmaxpu=1.2 model=1 kW=0.390004 kvar=0.08000628246214303 Phases=1

New Load.load_p6ulv12420_2 conn=wye bus1=p6ulv12420.2 kV=0.12 Vminpu=0.8 Vmaxpu=1.2 model=1 kW=0.390004 kvar=0.08000628246214303 Phases=1

New Load.load_p6ulv12421_1 conn=wye bus1=p6ulv12421.1 kV=0.12 Vminpu=0.8 Vmaxpu=1.2 model=1 kW=1.360015 kvar=0.27473634952721826 Phases=1

New Load.load_p6ulv12421_2 conn=wye bus1=p6ulv12421.2 kV=0.12 Vminpu=0.8 Vmaxpu=1.2 model=1 kW=1.360015 kvar=0.27473634952721826 Phases=1

New Load.load_p6ulv12422_1 conn=wye bus1=p6ulv12422.1 kV=0.12 Vminpu=0.8 Vmaxpu=1.2 model=1 kW=0.81001 kvar=0.16490289472548758 Phases=1

New Load.load_p6ulv12422_2 conn=wye bus1=p6ulv12422.2 kV=0.12 Vminpu=0.8 Vmaxpu=1.2 model=1 kW=0.81001 kvar=0.16490289472548758 Phases=1

New Load.load_p6ulv12423_1 conn=wye bus1=p6ulv12423.1 kV=0.12 Vminpu=0.8 Vmaxpu=1.2 model=1 kW=0.77501 kvar=0.1549225617334453 Phases=1

New Load.load_p6ulv12423_2 conn=wye bus1=p6ulv12423.2 kV=0.12 Vminpu=0.8 Vmaxpu=1.2 model=1 kW=0.77501 kvar=0.1549225617334453 Phases=1

New Load.load_p6ulv12424_1 conn=wye bus1=p6ulv12424.1 kV=0.12 Vminpu=0.8 Vmaxpu=1.2 model=1 kW=0.89001 kvar=0.17979073645711227 Phases=1

New Load.load_p6ulv12424_2 conn=wye bus1=p6ulv12424.2 kV=0.12 Vminpu=0.8 Vmaxpu=1.2 model=1 kW=0.89001 kvar=0.17979073645711227 Phases=1

New Load.load_p6ulv12425_1 conn=wye bus1=p6ulv12425.1 kV=0.12 Vminpu=0.8 Vmaxpu=1.2 model=1 kW=1.700015 kvar=0.3452027689577168 Phases=1

New Load.load_p6ulv12425_2 conn=wye bus1=p6ulv12425.2 kV=0.12 Vminpu=0.8 Vmaxpu=1.2 model=1 kW=1.700015 kvar=0.3452027689577168 Phases=1

New Load.load_p6ulv12426_1 conn=wye bus1=p6ulv12426.1 kV=0.12 Vminpu=0.8 Vmaxpu=1.2 model=1 kW=2.02502 kvar=0.41013707305839925 Phases=1

New Load.load_p6ulv12426_2 conn=wye bus1=p6ulv12426.2 kV=0.12 Vminpu=0.8 Vmaxpu=1.2 model=1 kW=2.02502 kvar=0.41013707305839925 Phases=1

New Load.load_p6ulv12427_1 conn=wye bus1=p6ulv12427.1 kV=0.12 Vminpu=0.8 Vmaxpu=1.2 model=1 kW=0.33000350000000006 kvar=0.06508626818707555 Phases=1

New Load.load_p6ulv12427_2 conn=wye bus1=p6ulv12427.2 kV=0.12 Vminpu=0.8 Vmaxpu=1.2 model=1 kW=0.33000350000000006 kvar=0.06508626818707555 Phases=1

New Load.load_p6ulv12428_1 conn=wye bus1=p6ulv12428.1 kV=0.12 Vminpu=0.8 Vmaxpu=1.2 model=1 kW=0.97501 kvar=0.20001570615535758 Phases=1

New Load.load_p6ulv12428_2 conn=wye bus1=p6ulv12428.2 kV=0.12 Vminpu=0.8 Vmaxpu=1.2 model=1 kW=0.97501 kvar=0.20001570615535758 Phases=1

New Load.load_p6ulv12429_1 conn=wye bus1=p6ulv12429.1 kV=0.12 Vminpu=0.8 Vmaxpu=1.2 model=1 kW=0.730005 kvar=0.150132970647273 Phases=1

New Load.load_p6ulv12429_2 conn=wye bus1=p6ulv12429.2 kV=0.12 Vminpu=0.8 Vmaxpu=1.2 model=1 kW=0.730005 kvar=0.150132970647273 Phases=1

New Load.load_p6ulv12430_1 conn=wye bus1=p6ulv12430.1 kV=0.12 Vminpu=0.8 Vmaxpu=1.2 model=1 kW=0.600005 kvar=0.11993949968758576 Phases=1

New Load.load_p6ulv12430_2 conn=wye bus1=p6ulv12430.2 kV=0.12 Vminpu=0.8 Vmaxpu=1.2 model=1 kW=0.600005 kvar=0.11993949968758576 Phases=1

New Load.load_p6ulv12431_1 conn=wye bus1=p6ulv12431.1 kV=0.12 Vminpu=0.8 Vmaxpu=1.2 model=1 kW=1.00001 kvar=0.2051442614049283 Phases=1

New Load.load_p6ulv12431_2 conn=wye bus1=p6ulv12431.2 kV=0.12 Vminpu=0.8 Vmaxpu=1.2 model=1 kW=1.00001 kvar=0.2051442614049283 Phases=1

New Load.load_p6ulv12432_1 conn=wye bus1=p6ulv12432.1 kV=0.12 Vminpu=0.8 Vmaxpu=1.2 model=1 kW=0.590005 kvar=0.12011398921311008 Phases=1

New Load.load_p6ulv12432_2 conn=wye bus1=p6ulv12432.2 kV=0.12 Vminpu=0.8 Vmaxpu=1.2 model=1 kW=0.590005 kvar=0.12011398921311008 Phases=1

New Load.load_p6ulv12433_1 conn=wye bus1=p6ulv12433.1 kV=0.12 Vminpu=0.8 Vmaxpu=1.2 model=1 kW=1.05501 kvar=0.21478031501381048 Phases=1

New Load.load_p6ulv12433_2 conn=wye bus1=p6ulv12433.2 kV=0.12 Vminpu=0.8 Vmaxpu=1.2 model=1 kW=1.05501 kvar=0.21478031501381048 Phases=1

New Load.load_p6ulv12434_1 conn=wye bus1=p6ulv12434.1 kV=0.12 Vminpu=0.8 Vmaxpu=1.2 model=1 kW=0.46000450000000004 kvar=0.0950795922858781 Phases=1

New Load.load_p6ulv12434_2 conn=wye bus1=p6ulv12434.2 kV=0.12 Vminpu=0.8 Vmaxpu=1.2 model=1 kW=0.46000450000000004 kvar=0.0950795922858781 Phases=1

New Load.load_p6ulv12435_1 conn=wye bus1=p6ulv12435.1 kV=0.12 Vminpu=0.8 Vmaxpu=1.2 model=1 kW=1.13501 kvar=0.22987905269677025 Phases=1

New Load.load_p6ulv12435_2 conn=wye bus1=p6ulv12435.2 kV=0.12 Vminpu=0.8 Vmaxpu=1.2 model=1 kW=1.13501 kvar=0.22987905269677025 Phases=1

New Load.load_p6ulv12436_1 conn=wye bus1=p6ulv12436.1 kV=0.12 Vminpu=0.8 Vmaxpu=1.2 model=1 kW=0.78001 kvar=0.16001297520870603 Phases=1

New Load.load_p6ulv12436_2 conn=wye bus1=p6ulv12436.2 kV=0.12 Vminpu=0.8 Vmaxpu=1.2 model=1 kW=0.78001 kvar=0.16001297520870603 Phases=1

New Load.load_p6ulv12437_1 conn=wye bus1=p6ulv12437.1 kV=0.12 Vminpu=0.8 Vmaxpu=1.2 model=1 kW=1.14001 kvar=0.23029318487261108 Phases=1

New Load.load_p6ulv12437_2 conn=wye bus1=p6ulv12437.2 kV=0.12 Vminpu=0.8 Vmaxpu=1.2 model=1 kW=1.14001 kvar=0.23029318487261108 Phases=1

New Load.load_p6ulv12438_1 conn=wye bus1=p6ulv12438.1 kV=0.12 Vminpu=0.8 Vmaxpu=1.2 model=1 kW=0.400004 kvar=0.07995979972339073 Phases=1

New Load.load_p6ulv12438_2 conn=wye bus1=p6ulv12438.2 kV=0.12 Vminpu=0.8 Vmaxpu=1.2 model=1 kW=0.400004 kvar=0.07995979972339073 Phases=1

New Load.load_p6ulv12439_1 conn=wye bus1=p6ulv12439.1 kV=0.12 Vminpu=0.8 Vmaxpu=1.2 model=1 kW=0.84501 kvar=0.16980991337253348 Phases=1

New Load.load_p6ulv12439_2 conn=wye bus1=p6ulv12439.2 kV=0.12 Vminpu=0.8 Vmaxpu=1.2 model=1 kW=0.84501 kvar=0.16980991337253348 Phases=1

New Load.load_p6ulv12440_1 conn=wye bus1=p6ulv12440.1 kV=0.12 Vminpu=0.8 Vmaxpu=1.2 model=1 kW=0.420004 kvar=0.08506543699954562 Phases=1

New Load.load_p6ulv12440_2 conn=wye bus1=p6ulv12440.2 kV=0.12 Vminpu=0.8 Vmaxpu=1.2 model=1 kW=0.420004 kvar=0.08506543699954562 Phases=1

New Load.load_p6ulv12441_1 conn=wye bus1=p6ulv12441.1 kV=0.12 Vminpu=0.8 Vmaxpu=1.2 model=1 kW=1.720015 kvar=0.3501629022743664 Phases=1

New Load.load_p6ulv12441_2 conn=wye bus1=p6ulv12441.2 kV=0.12 Vminpu=0.8 Vmaxpu=1.2 model=1 kW=1.720015 kvar=0.3501629022743664 Phases=1

New Load.load_p6ulv12442_1 conn=wye bus1=p6ulv12442.1 kV=0.12 Vminpu=0.8 Vmaxpu=1.2 model=1 kW=0.92501 kvar=0.19023773697225912 Phases=1

New Load.load_p6ulv12442_2 conn=wye bus1=p6ulv12442.2 kV=0.12 Vminpu=0.8 Vmaxpu=1.2 model=1 kW=0.92501 kvar=0.19023773697225912 Phases=1

New Load.load_p6ulv12443_1 conn=wye bus1=p6ulv12443.1 kV=0.12 Vminpu=0.8 Vmaxpu=1.2 model=1 kW=0.85001 kvar=0.17481322234763946 Phases=1

New Load.load_p6ulv12443_2 conn=wye bus1=p6ulv12443.2 kV=0.12 Vminpu=0.8 Vmaxpu=1.2 model=1 kW=0.85001 kvar=0.17481322234763946 Phases=1

New Load.load_p6ulv12444_1 conn=wye bus1=p6ulv12444.1 kV=0.12 Vminpu=0.8 Vmaxpu=1.2 model=1 kW=1.300015 kvar=0.26533666910116366 Phases=1

New Load.load_p6ulv12444_2 conn=wye bus1=p6ulv12444.2 kV=0.12 Vminpu=0.8 Vmaxpu=1.2 model=1 kW=1.300015 kvar=0.26533666910116366 Phases=1

New Load.load_p6ulv19674_1 conn=wye bus1=p6ulv19674.1 kV=0.12 Vminpu=0.8 Vmaxpu=1.2 model=1 kW=1.05501 kvar=0.21478031501381048 Phases=1

New Load.load_p6ulv19674_2 conn=wye bus1=p6ulv19674.2 kV=0.12 Vminpu=0.8 Vmaxpu=1.2 model=1 kW=1.05501 kvar=0.21478031501381048 Phases=1

New Load.load_p6ulv19675_1 conn=wye bus1=p6ulv19675.1 kV=0.12 Vminpu=0.8 Vmaxpu=1.2 model=1 kW=1.480015 kvar=0.2997545802918128 Phases=1

New Load.load_p6ulv19675_2 conn=wye bus1=p6ulv19675.2 kV=0.12 Vminpu=0.8 Vmaxpu=1.2 model=1 kW=1.480015 kvar=0.2997545802918128 Phases=1

New Load.load_p6ulv19676_1 conn=wye bus1=p6ulv19676.1 kV=0.12 Vminpu=0.8 Vmaxpu=1.2 model=1 kW=0.4500045 kvar=0.08995477468881455 Phases=1

New Load.load_p6ulv19676_2 conn=wye bus1=p6ulv19676.2 kV=0.12 Vminpu=0.8 Vmaxpu=1.2 model=1 kW=0.4500045 kvar=0.08995477468881455 Phases=1

New Load.load_p6ulv19678_1 conn=wye bus1=p6ulv19678.1 kV=0.12 Vminpu=0.8 Vmaxpu=1.2 model=1 kW=0.690005 kvar=0.14011149113076612 Phases=1

New Load.load_p6ulv19678_2 conn=wye bus1=p6ulv19678.2 kV=0.12 Vminpu=0.8 Vmaxpu=1.2 model=1 kW=0.690005 kvar=0.14011149113076612 Phases=1

New Load.load_p6ulv19679_1 conn=wye bus1=p6ulv19679.1 kV=0.12 Vminpu=0.8 Vmaxpu=1.2 model=1 kW=0.275003 kvar=0.0549724122842062 Phases=1

New Load.load_p6ulv19679_2 conn=wye bus1=p6ulv19679.2 kV=0.12 Vminpu=0.8 Vmaxpu=1.2 model=1 kW=0.275003 kvar=0.0549724122842062 Phases=1

New Load.load_p6ulv19680_1 conn=wye bus1=p6ulv19680.1 kV=0.12 Vminpu=0.8 Vmaxpu=1.2 model=1 kW=0.3500035 kvar=0.06996482475796689 Phases=1

New Load.load_p6ulv19680_2 conn=wye bus1=p6ulv19680.2 kV=0.12 Vminpu=0.8 Vmaxpu=1.2 model=1 kW=0.3500035 kvar=0.06996482475796689 Phases=1

New Load.load_p6ulv19681_1 conn=wye bus1=p6ulv19681.1 kV=0.12 Vminpu=0.8 Vmaxpu=1.2 model=1 kW=0.480005 kvar=0.09995294943812434 Phases=1

New Load.load_p6ulv19681_2 conn=wye bus1=p6ulv19681.2 kV=0.12 Vminpu=0.8 Vmaxpu=1.2 model=1 kW=0.480005 kvar=0.09995294943812434 Phases=1

New Load.load_p6ulv19682_1 conn=wye bus1=p6ulv19682.1 kV=0.12 Vminpu=0.8 Vmaxpu=1.2 model=1 kW=0.9900100000000001 kvar=0.19999171582331182 Phases=1

New Load.load_p6ulv19682_2 conn=wye bus1=p6ulv19682.2 kV=0.12 Vminpu=0.8 Vmaxpu=1.2 model=1 kW=0.9900100000000001 kvar=0.19999171582331182 Phases=1

New Load.load_p6ulv19683_1 conn=wye bus1=p6ulv19683.1 kV=0.12 Vminpu=0.8 Vmaxpu=1.2 model=1 kW=0.4500045 kvar=0.08995477468881455 Phases=1

New Load.load_p6ulv19683_2 conn=wye bus1=p6ulv19683.2 kV=0.12 Vminpu=0.8 Vmaxpu=1.2 model=1 kW=0.4500045 kvar=0.08995477468881455 Phases=1

New Load.load_p6ulv19684_1 conn=wye bus1=p6ulv19684.1 kV=0.12 Vminpu=0.8 Vmaxpu=1.2 model=1 kW=1.90002 kvar=0.3848202198261843 Phases=1

New Load.load_p6ulv19684_2 conn=wye bus1=p6ulv19684.2 kV=0.12 Vminpu=0.8 Vmaxpu=1.2 model=1 kW=1.90002 kvar=0.3848202198261843 Phases=1

New Load.load_p6ulv19685_1 conn=wye bus1=p6ulv19685.1 kV=0.12 Vminpu=0.8 Vmaxpu=1.2 model=1 kW=1.10501 kvar=0.2249593803787744 Phases=1

New Load.load_p6ulv19685_2 conn=wye bus1=p6ulv19685.2 kV=0.12 Vminpu=0.8 Vmaxpu=1.2 model=1 kW=1.10501 kvar=0.2249593803787744 Phases=1

New Load.load_p6ulv19686_1 conn=wye bus1=p6ulv19686.1 kV=0.12 Vminpu=0.8 Vmaxpu=1.2 model=1 kW=0.405004 kvar=0.08009572620981252 Phases=1

New Load.load_p6ulv19686_2 conn=wye bus1=p6ulv19686.2 kV=0.12 Vminpu=0.8 Vmaxpu=1.2 model=1 kW=0.405004 kvar=0.08009572620981252 Phases=1

New Load.load_p6ulv19687_1 conn=wye bus1=p6ulv19687.1 kV=0.12 Vminpu=0.8 Vmaxpu=1.2 model=1 kW=0.2600025 kvar=0.05506573149183484 Phases=1

New Load.load_p6ulv19687_2 conn=wye bus1=p6ulv19687.2 kV=0.12 Vminpu=0.8 Vmaxpu=1.2 model=1 kW=0.2600025 kvar=0.05506573149183484 Phases=1

New Load.load_p6ulv19688_1 conn=wye bus1=p6ulv19688.1 kV=0.12 Vminpu=0.8 Vmaxpu=1.2 model=1 kW=1.520015 kvar=0.3102392796112393 Phases=1

New Load.load_p6ulv19688_2 conn=wye bus1=p6ulv19688.2 kV=0.12 Vminpu=0.8 Vmaxpu=1.2 model=1 kW=1.520015 kvar=0.3102392796112393 Phases=1

New Load.load_p6ulv19689_1 conn=wye bus1=p6ulv19689.1 kV=0.12 Vminpu=0.8 Vmaxpu=1.2 model=1 kW=1.12501 kvar=0.23020300330136328 Phases=1

New Load.load_p6ulv19689_2 conn=wye bus1=p6ulv19689.2 kV=0.12 Vminpu=0.8 Vmaxpu=1.2 model=1 kW=1.12501 kvar=0.23020300330136328 Phases=1

New Load.load_p6ulv19690_1 conn=wye bus1=p6ulv19690.1 kV=0.12 Vminpu=0.8 Vmaxpu=1.2 model=1 kW=0.4250045 kvar=0.08495733718047772 Phases=1

New Load.load_p6ulv19690_2 conn=wye bus1=p6ulv19690.2 kV=0.12 Vminpu=0.8 Vmaxpu=1.2 model=1 kW=0.4250045 kvar=0.08495733718047772 Phases=1

New Load.load_p6ulv19691_1 conn=wye bus1=p6ulv19691.1 kV=0.12 Vminpu=0.8 Vmaxpu=1.2 model=1 kW=0.83501 kvar=0.1699924274079695 Phases=1

New Load.load_p6ulv19691_2 conn=wye bus1=p6ulv19691.2 kV=0.12 Vminpu=0.8 Vmaxpu=1.2 model=1 kW=0.83501 kvar=0.1699924274079695 Phases=1

New Load.load_p6ulv19692_1 conn=wye bus1=p6ulv19692.1 kV=0.12 Vminpu=0.8 Vmaxpu=1.2 model=1 kW=0.9900100000000001 kvar=0.19999171582331182 Phases=1

New Load.load_p6ulv19692_2 conn=wye bus1=p6ulv19692.2 kV=0.12 Vminpu=0.8 Vmaxpu=1.2 model=1 kW=0.9900100000000001 kvar=0.19999171582331182 Phases=1

New Load.load_p6ulv19693_1 conn=wye bus1=p6ulv19692.1 kV=0.12 Vminpu=0.8 Vmaxpu=1.2 model=1 kW=0.4550045 kvar=0.0949796391471619 Phases=1

New Load.load_p6ulv19693_2 conn=wye bus1=p6ulv19692.2 kV=0.12 Vminpu=0.8 Vmaxpu=1.2 model=1 kW=0.4550045 kvar=0.0949796391471619 Phases=1

New Load.load_p6ulv19694_1 conn=wye bus1=p6ulv19694.1 kV=0.12 Vminpu=0.8 Vmaxpu=1.2 model=1 kW=1.2550150000000002 kvar=0.2548416649755849 Phases=1

New Load.load_p6ulv19694_2 conn=wye bus1=p6ulv19694.2 kV=0.12 Vminpu=0.8 Vmaxpu=1.2 model=1 kW=1.2550150000000002 kvar=0.2548416649755849 Phases=1

New Load.load_p6ulv19695_1 conn=wye bus1=p6ulv19695.1 kV=0.12 Vminpu=0.8 Vmaxpu=1.2 model=1 kW=0.3700035 kvar=0.07493859443924673 Phases=1

New Load.load_p6ulv19695_2 conn=wye bus1=p6ulv19695.2 kV=0.12 Vminpu=0.8 Vmaxpu=1.2 model=1 kW=0.3700035 kvar=0.07493859443924673 Phases=1

New Load.load_p6ulv19696_1 conn=wye bus1=p6ulv19696.1 kV=0.12 Vminpu=0.8 Vmaxpu=1.2 model=1 kW=0.82501 kvar=0.17009811707696765 Phases=1

New Load.load_p6ulv19696_2 conn=wye bus1=p6ulv19696.2 kV=0.12 Vminpu=0.8 Vmaxpu=1.2 model=1 kW=0.82501 kvar=0.17009811707696765 Phases=1

New Load.load_p6ulv19697_1 conn=wye bus1=p6ulv19697.1 kV=0.12 Vminpu=0.8 Vmaxpu=1.2 model=1 kW=1.4000150000000002 kvar=0.28501688393859764 Phases=1

New Load.load_p6ulv19697_2 conn=wye bus1=p6ulv19697.2 kV=0.12 Vminpu=0.8 Vmaxpu=1.2 model=1 kW=1.4000150000000002 kvar=0.28501688393859764 Phases=1

New Load.load_p6ulv19698_1 conn=wye bus1=p6ulv19697.1 kV=0.12 Vminpu=0.8 Vmaxpu=1.2 model=1 kW=0.3600035 kvar=0.07496466002030767 Phases=1

New Load.load_p6ulv19698_2 conn=wye bus1=p6ulv19697.2 kV=0.12 Vminpu=0.8 Vmaxpu=1.2 model=1 kW=0.3600035 kvar=0.07496466002030767 Phases=1

New Load.load_p6ulv19699_1 conn=wye bus1=p6ulv19699.1 kV=0.12 Vminpu=0.8 Vmaxpu=1.2 model=1 kW=0.2400025 kvar=0.04997647471906217 Phases=1

New Load.load_p6ulv19699_2 conn=wye bus1=p6ulv19699.2 kV=0.12 Vminpu=0.8 Vmaxpu=1.2 model=1 kW=0.2400025 kvar=0.04997647471906217 Phases=1

New Load.load_p6ulv19700_1 conn=wye bus1=p6ulv19700.1 kV=0.12 Vminpu=0.8 Vmaxpu=1.2 model=1 kW=0.725005 kvar=0.14492668722926993 Phases=1

New Load.load_p6ulv19700_2 conn=wye bus1=p6ulv19700.2 kV=0.12 Vminpu=0.8 Vmaxpu=1.2 model=1 kW=0.725005 kvar=0.14492668722926993 Phases=1

New Load.load_p6ulv19701_1 conn=wye bus1=p6ulv19701.1 kV=0.12 Vminpu=0.8 Vmaxpu=1.2 model=1 kW=0.3650035 kvar=0.0750666909838315 Phases=1

New Load.load_p6ulv19701_2 conn=wye bus1=p6ulv19701.2 kV=0.12 Vminpu=0.8 Vmaxpu=1.2 model=1 kW=0.3650035 kvar=0.0750666909838315 Phases=1

New Load.load_p6ulv19702_1 conn=wye bus1=p6ulv19702.1 kV=0.12 Vminpu=0.8 Vmaxpu=1.2 model=1 kW=0.3650035 kvar=0.0750666909838315 Phases=1

New Load.load_p6ulv19702_2 conn=wye bus1=p6ulv19702.2 kV=0.12 Vminpu=0.8 Vmaxpu=1.2 model=1 kW=0.3650035 kvar=0.0750666909838315 Phases=1

New Load.load_p6ulv19703_1 conn=wye bus1=p6ulv19703.1 kV=0.12 Vminpu=0.8 Vmaxpu=1.2 model=1 kW=0.380004 kvar=0.08009669482579153 Phases=1

New Load.load_p6ulv19703_2 conn=wye bus1=p6ulv19703.2 kV=0.12 Vminpu=0.8 Vmaxpu=1.2 model=1 kW=0.380004 kvar=0.08009669482579153 Phases=1

New Load.load_p6ulv19704_1 conn=wye bus1=p6ulv19704.1 kV=0.12 Vminpu=0.8 Vmaxpu=1.2 model=1 kW=0.96501 kvar=0.19494147098176193 Phases=1

New Load.load_p6ulv19704_2 conn=wye bus1=p6ulv19704.2 kV=0.12 Vminpu=0.8 Vmaxpu=1.2 model=1 kW=0.96501 kvar=0.19494147098176193 Phases=1

New Load.load_p6ulv19705_1 conn=wye bus1=p6ulv19705.1 kV=0.12 Vminpu=0.8 Vmaxpu=1.2 model=1 kW=0.315003 kvar=0.06494638510272123 Phases=1

New Load.load_p6ulv19705_2 conn=wye bus1=p6ulv19705.2 kV=0.12 Vminpu=0.8 Vmaxpu=1.2 model=1 kW=0.315003 kvar=0.06494638510272123 Phases=1

New Load.load_p6ulv19706_1 conn=wye bus1=p6ulv19706.1 kV=0.12 Vminpu=0.8 Vmaxpu=1.2 model=1 kW=0.76001 kvar=0.15512015006255728 Phases=1

New Load.load_p6ulv19706_2 conn=wye bus1=p6ulv19706.2 kV=0.12 Vminpu=0.8 Vmaxpu=1.2 model=1 kW=0.76001 kvar=0.15512015006255728 Phases=1

New Load.load_p6ulv19707_1 conn=wye bus1=p6ulv19707.1 kV=0.12 Vminpu=0.8 Vmaxpu=1.2 model=1 kW=0.94001 kvar=0.18989122614021203 Phases=1

New Load.load_p6ulv19707_2 conn=wye bus1=p6ulv19707.2 kV=0.12 Vminpu=0.8 Vmaxpu=1.2 model=1 kW=0.94001 kvar=0.18989122614021203 Phases=1

New Load.load_p6ulv19708_1 conn=wye bus1=p6ulv19708.1 kV=0.12 Vminpu=0.8 Vmaxpu=1.2 model=1 kW=0.4350045 kvar=0.0899122736897623 Phases=1

New Load.load_p6ulv19708_2 conn=wye bus1=p6ulv19708.2 kV=0.12 Vminpu=0.8 Vmaxpu=1.2 model=1 kW=0.4350045 kvar=0.0899122736897623 Phases=1

New Load.load_p6ulv19709_1 conn=wye bus1=p6ulv19709.1 kV=0.12 Vminpu=0.8 Vmaxpu=1.2 model=1 kW=0.280003 kvar=0.0550742040398118 Phases=1

New Load.load_p6ulv19709_2 conn=wye bus1=p6ulv19709.2 kV=0.12 Vminpu=0.8 Vmaxpu=1.2 model=1 kW=0.280003 kvar=0.0550742040398118 Phases=1

New Load.load_p6ulv19710_1 conn=wye bus1=p6ulv19710.1 kV=0.12 Vminpu=0.8 Vmaxpu=1.2 model=1 kW=0.390004 kvar=0.08000628246214303 Phases=1

New Load.load_p6ulv19710_2 conn=wye bus1=p6ulv19710.2 kV=0.12 Vminpu=0.8 Vmaxpu=1.2 model=1 kW=0.390004 kvar=0.08000628246214303 Phases=1

New Load.load_p6ulv19711_1 conn=wye bus1=p6ulv19711.1 kV=0.12 Vminpu=0.8 Vmaxpu=1.2 model=1 kW=0.8600100000000002 kvar=0.17508196009045146 Phases=1

New Load.load_p6ulv19711_2 conn=wye bus1=p6ulv19711.2 kV=0.12 Vminpu=0.8 Vmaxpu=1.2 model=1 kW=0.8600100000000002 kvar=0.17508196009045146 Phases=1

New Load.load_p6ulv19712_1 conn=wye bus1=p6ulv19712.1 kV=0.12 Vminpu=0.8 Vmaxpu=1.2 model=1 kW=0.600005 kvar=0.11993949968758576 Phases=1

New Load.load_p6ulv19712_2 conn=wye bus1=p6ulv19712.2 kV=0.12 Vminpu=0.8 Vmaxpu=1.2 model=1 kW=0.600005 kvar=0.11993949968758576 Phases=1

New Load.load_p6ulv19713_1 conn=wye bus1=p6ulv19713.1 kV=0.12 Vminpu=0.8 Vmaxpu=1.2 model=1 kW=0.81501 kvar=0.1650679084223 Phases=1

New Load.load_p6ulv19713_2 conn=wye bus1=p6ulv19713.2 kV=0.12 Vminpu=0.8 Vmaxpu=1.2 model=1 kW=0.81501 kvar=0.1650679084223 Phases=1

New Load.load_p6ulv19714_1 conn=wye bus1=p6ulv19714.1 kV=0.12 Vminpu=0.8 Vmaxpu=1.2 model=1 kW=1.625015 kvar=0.3299733694101665 Phases=1

New Load.load_p6ulv19714_2 conn=wye bus1=p6ulv19714.2 kV=0.12 Vminpu=0.8 Vmaxpu=1.2 model=1 kW=1.625015 kvar=0.3299733694101665 Phases=1

New Load.load_p6ulv19715_1 conn=wye bus1=p6ulv19715.1 kV=0.12 Vminpu=0.8 Vmaxpu=1.2 model=1 kW=0.510005 kvar=0.10488772774838868 Phases=1

New Load.load_p6ulv19715_2 conn=wye bus1=p6ulv19715.2 kV=0.12 Vminpu=0.8 Vmaxpu=1.2 model=1 kW=0.510005 kvar=0.10488772774838868 Phases=1

New Load.load_p6ulv19716_1 conn=wye bus1=p6ulv19716.1 kV=0.12 Vminpu=0.8 Vmaxpu=1.2 model=1 kW=1.08001 kvar=0.21986984769629242 Phases=1

New Load.load_p6ulv19716_2 conn=wye bus1=p6ulv19716.2 kV=0.12 Vminpu=0.8 Vmaxpu=1.2 model=1 kW=1.08001 kvar=0.21986984769629242 Phases=1

New Load.load_p6ulv19717_1 conn=wye bus1=p6ulv19717.1 kV=0.12 Vminpu=0.8 Vmaxpu=1.2 model=1 kW=1.605015 kvar=0.32507143352402773 Phases=1

New Load.load_p6ulv19717_2 conn=wye bus1=p6ulv19717.2 kV=0.12 Vminpu=0.8 Vmaxpu=1.2 model=1 kW=1.605015 kvar=0.32507143352402773 Phases=1

New Load.load_p6ulv19718_1 conn=wye bus1=p6ulv19718.1 kV=0.12 Vminpu=0.8 Vmaxpu=1.2 model=1 kW=4.02004 kvar=0.8141981013410668 Phases=1

New Load.load_p6ulv19718_2 conn=wye bus1=p6ulv19718.2 kV=0.12 Vminpu=0.8 Vmaxpu=1.2 model=1 kW=4.02004 kvar=0.8141981013410668 Phases=1

New Load.load_p6ulv19719_1 conn=wye bus1=p6ulv19719.1 kV=0.12 Vminpu=0.8 Vmaxpu=1.2 model=1 kW=2.13002 kvar=0.4302849006959229 Phases=1

New Load.load_p6ulv19719_2 conn=wye bus1=p6ulv19719.2 kV=0.12 Vminpu=0.8 Vmaxpu=1.2 model=1 kW=2.13002 kvar=0.4302849006959229 Phases=1

New Load.load_p6ulv19720_1 conn=wye bus1=p6ulv19720.1 kV=0.12 Vminpu=0.8 Vmaxpu=1.2 model=1 kW=3.88004 kvar=0.7858432257209862 Phases=1

New Load.load_p6ulv19720_2 conn=wye bus1=p6ulv19720.2 kV=0.12 Vminpu=0.8 Vmaxpu=1.2 model=1 kW=3.88004 kvar=0.7858432257209862 Phases=1

New Load.load_p6ulv19721_1 conn=wye bus1=p6ulv19721.1 kV=0.12 Vminpu=0.8 Vmaxpu=1.2 model=1 kW=4.80505 kvar=0.9757070172794221 Phases=1

New Load.load_p6ulv19721_2 conn=wye bus1=p6ulv19721.2 kV=0.12 Vminpu=0.8 Vmaxpu=1.2 model=1 kW=4.80505 kvar=0.9757070172794221 Phases=1

New Load.load_p6ulv19722_1 conn=wye bus1=p6ulv19722.1 kV=0.12 Vminpu=0.8 Vmaxpu=1.2 model=1 kW=4.355045 kvar=0.884329604700817 Phases=1

New Load.load_p6ulv19722_2 conn=wye bus1=p6ulv19722.2 kV=0.12 Vminpu=0.8 Vmaxpu=1.2 model=1 kW=4.355045 kvar=0.884329604700817 Phases=1

New Load.load_p6ulv19723_1 conn=wye bus1=p6ulv19723.1 kV=0.12 Vminpu=0.8 Vmaxpu=1.2 model=1 kW=0.590005 kvar=0.12011398921311008 Phases=1

New Load.load_p6ulv19723_2 conn=wye bus1=p6ulv19723.2 kV=0.12 Vminpu=0.8 Vmaxpu=1.2 model=1 kW=0.590005 kvar=0.12011398921311008 Phases=1

New Load.load_p6ulv19724_1 conn=wye bus1=p6ulv19724.1 kV=0.12 Vminpu=0.8 Vmaxpu=1.2 model=1 kW=1.06501 kvar=0.21514245034796145 Phases=1

New Load.load_p6ulv19724_2 conn=wye bus1=p6ulv19724.2 kV=0.12 Vminpu=0.8 Vmaxpu=1.2 model=1 kW=1.06501 kvar=0.21514245034796145 Phases=1

New Load.load_p6ulv19725_1 conn=wye bus1=p6ulv19725.1 kV=0.12 Vminpu=0.8 Vmaxpu=1.2 model=1 kW=0.280003 kvar=0.0550742040398118 Phases=1

New Load.load_p6ulv19725_2 conn=wye bus1=p6ulv19725.2 kV=0.12 Vminpu=0.8 Vmaxpu=1.2 model=1 kW=0.280003 kvar=0.0550742040398118 Phases=1

New Load.load_p6ulv19726_1 conn=wye bus1=p6ulv19726.1 kV=0.12 Vminpu=0.8 Vmaxpu=1.2 model=1 kW=1.07501 kvar=0.21997184965377958 Phases=1

New Load.load_p6ulv19726_2 conn=wye bus1=p6ulv19726.2 kV=0.12 Vminpu=0.8 Vmaxpu=1.2 model=1 kW=1.07501 kvar=0.21997184965377958 Phases=1

New Load.load_p6ulv19727_1 conn=wye bus1=p6ulv19727.1 kV=0.12 Vminpu=0.8 Vmaxpu=1.2 model=1 kW=1.20501 kvar=0.2446877166505815 Phases=1

New Load.load_p6ulv19727_2 conn=wye bus1=p6ulv19727.2 kV=0.12 Vminpu=0.8 Vmaxpu=1.2 model=1 kW=1.20501 kvar=0.2446877166505815 Phases=1

New Load.load_p6ulv19728_1 conn=wye bus1=p6ulv19728.1 kV=0.12 Vminpu=0.8 Vmaxpu=1.2 model=1 kW=1.81502 kvar=0.37045061876362506 Phases=1

New Load.load_p6ulv19728_2 conn=wye bus1=p6ulv19728.2 kV=0.12 Vminpu=0.8 Vmaxpu=1.2 model=1 kW=1.81502 kvar=0.37045061876362506 Phases=1

New Load.load_p6ulv19729_1 conn=wye bus1=p6ulv19729.1 kV=0.12 Vminpu=0.8 Vmaxpu=1.2 model=1 kW=1.545015 kvar=0.3153418489873843 Phases=1

New Load.load_p6ulv19729_2 conn=wye bus1=p6ulv19729.2 kV=0.12 Vminpu=0.8 Vmaxpu=1.2 model=1 kW=1.545015 kvar=0.3153418489873843 Phases=1

New Load.load_p6ulv19730_1 conn=wye bus1=p6ulv19730.1 kV=0.12 Vminpu=0.8 Vmaxpu=1.2 model=1 kW=0.730005 kvar=0.150132970647273 Phases=1

New Load.load_p6ulv19730_2 conn=wye bus1=p6ulv19730.2 kV=0.12 Vminpu=0.8 Vmaxpu=1.2 model=1 kW=0.730005 kvar=0.150132970647273 Phases=1

New Load.load_p6ulv19731_1 conn=wye bus1=p6ulv19731.1 kV=0.12 Vminpu=0.8 Vmaxpu=1.2 model=1 kW=1.10001 kvar=0.22508742647757143 Phases=1

New Load.load_p6ulv19731_2 conn=wye bus1=p6ulv19731.2 kV=0.12 Vminpu=0.8 Vmaxpu=1.2 model=1 kW=1.10001 kvar=0.22508742647757143 Phases=1

New Load.load_p6ulv19732_1 conn=wye bus1=p6ulv19732.1 kV=0.12 Vminpu=0.8 Vmaxpu=1.2 model=1 kW=0.97001 kvar=0.19492942577069053 Phases=1

New Load.load_p6ulv19732_2 conn=wye bus1=p6ulv19732.2 kV=0.12 Vminpu=0.8 Vmaxpu=1.2 model=1 kW=0.97001 kvar=0.19492942577069053 Phases=1

New Load.load_p6ulv19733_1 conn=wye bus1=p6ulv19733.1 kV=0.12 Vminpu=0.8 Vmaxpu=1.2 model=1 kW=0.85001 kvar=0.17481322234763946 Phases=1

New Load.load_p6ulv19733_2 conn=wye bus1=p6ulv19733.2 kV=0.12 Vminpu=0.8 Vmaxpu=1.2 model=1 kW=0.85001 kvar=0.17481322234763946 Phases=1

New Load.load_p6ulv19734_1 conn=wye bus1=p6ulv19734.1 kV=0.12 Vminpu=0.8 Vmaxpu=1.2 model=1 kW=0.730005 kvar=0.150132970647273 Phases=1

New Load.load_p6ulv19734_2 conn=wye bus1=p6ulv19734.2 kV=0.12 Vminpu=0.8 Vmaxpu=1.2 model=1 kW=0.730005 kvar=0.150132970647273 Phases=1

New Load.load_p6ulv19735_1 conn=wye bus1=p6ulv19735.1 kV=0.12 Vminpu=0.8 Vmaxpu=1.2 model=1 kW=0.710005 kvar=0.1449139907963921 Phases=1

New Load.load_p6ulv19735_2 conn=wye bus1=p6ulv19735.2 kV=0.12 Vminpu=0.8 Vmaxpu=1.2 model=1 kW=0.710005 kvar=0.1449139907963921 Phases=1

New Load.load_p6ulv19736_1 conn=wye bus1=p6ulv19736.1 kV=0.12 Vminpu=0.8 Vmaxpu=1.2 model=1 kW=0.3250035 kvar=0.06496738724963005 Phases=1

New Load.load_p6ulv19736_2 conn=wye bus1=p6ulv19736.2 kV=0.12 Vminpu=0.8 Vmaxpu=1.2 model=1 kW=0.3250035 kvar=0.06496738724963005 Phases=1

New Load.load_p6ulv19737_1 conn=wye bus1=p6ulv19737.1 kV=0.12 Vminpu=0.8 Vmaxpu=1.2 model=1 kW=0.375004 kvar=0.07496236221505388 Phases=1

New Load.load_p6ulv19737_2 conn=wye bus1=p6ulv19737.2 kV=0.12 Vminpu=0.8 Vmaxpu=1.2 model=1 kW=0.375004 kvar=0.07496236221505388 Phases=1

New Load.load_p6ulv22235_1 conn=wye bus1=p6ulv22235.1 kV=0.12 Vminpu=0.8 Vmaxpu=1.2 model=1 kW=0.680005 kvar=0.13984996089752658 Phases=1

New Load.load_p6ulv22235_2 conn=wye bus1=p6ulv22235.2 kV=0.12 Vminpu=0.8 Vmaxpu=1.2 model=1 kW=0.680005 kvar=0.13984996089752658 Phases=1

New Load.load_p6ulv22236_1 conn=wye bus1=p6ulv22236.1 kV=0.12 Vminpu=0.8 Vmaxpu=1.2 model=1 kW=0.595005 kvar=0.11988372241677617 Phases=1

New Load.load_p6ulv22236_2 conn=wye bus1=p6ulv22236.2 kV=0.12 Vminpu=0.8 Vmaxpu=1.2 model=1 kW=0.595005 kvar=0.11988372241677617 Phases=1

New Load.load_p6ulv22237_1 conn=wye bus1=p6ulv22237.1 kV=0.12 Vminpu=0.8 Vmaxpu=1.2 model=1 kW=0.49500500000000003 kvar=0.09999585791165591 Phases=1

New Load.load_p6ulv22237_2 conn=wye bus1=p6ulv22237.2 kV=0.12 Vminpu=0.8 Vmaxpu=1.2 model=1 kW=0.49500500000000003 kvar=0.09999585791165591 Phases=1

New Load.load_p6ulv22238_1 conn=wye bus1=p6ulv22238.1 kV=0.12 Vminpu=0.8 Vmaxpu=1.2 model=1 kW=0.94501 kvar=0.18990552329105911 Phases=1

New Load.load_p6ulv22238_2 conn=wye bus1=p6ulv22238.2 kV=0.12 Vminpu=0.8 Vmaxpu=1.2 model=1 kW=0.94501 kvar=0.18990552329105911 Phases=1

New Load.load_p6ulv22239_1 conn=wye bus1=p6ulv22239.1 kV=0.12 Vminpu=0.8 Vmaxpu=1.2 model=1 kW=1.520015 kvar=0.3102392796112393 Phases=1

New Load.load_p6ulv22239_2 conn=wye bus1=p6ulv22239.2 kV=0.12 Vminpu=0.8 Vmaxpu=1.2 model=1 kW=1.520015 kvar=0.3102392796112393 Phases=1

New Load.load_p6ulv22240_1 conn=wye bus1=p6ulv22240.1 kV=0.12 Vminpu=0.8 Vmaxpu=1.2 model=1 kW=1.11501 kvar=0.22524294003106118 Phases=1

New Load.load_p6ulv22240_2 conn=wye bus1=p6ulv22240.2 kV=0.12 Vminpu=0.8 Vmaxpu=1.2 model=1 kW=1.11501 kvar=0.22524294003106118 Phases=1

New Load.load_p6ulv22241_1 conn=wye bus1=p6ulv22241.1 kV=0.12 Vminpu=0.8 Vmaxpu=1.2 model=1 kW=0.645005 kvar=0.12995790014778485 Phases=1

New Load.load_p6ulv22241_2 conn=wye bus1=p6ulv22241.2 kV=0.12 Vminpu=0.8 Vmaxpu=1.2 model=1 kW=0.645005 kvar=0.12995790014778485 Phases=1

New Load.load_p6ulv22242_1 conn=wye bus1=p6ulv22242.1 kV=0.12 Vminpu=0.8 Vmaxpu=1.2 model=1 kW=1.01501 kvar=0.2050419606648617 Phases=1

New Load.load_p6ulv22242_2 conn=wye bus1=p6ulv22242.2 kV=0.12 Vminpu=0.8 Vmaxpu=1.2 model=1 kW=1.01501 kvar=0.2050419606648617 Phases=1

New Load.load_p6ulv22243_1 conn=wye bus1=p6ulv22243.1 kV=0.12 Vminpu=0.8 Vmaxpu=1.2 model=1 kW=0.585005 kvar=0.12000921855100456 Phases=1

New Load.load_p6ulv22243_2 conn=wye bus1=p6ulv22243.2 kV=0.12 Vminpu=0.8 Vmaxpu=1.2 model=1 kW=0.585005 kvar=0.12000921855100456 Phases=1

New Load.load_p6ulv22244_1 conn=wye bus1=p6ulv22244.1 kV=0.12 Vminpu=0.8 Vmaxpu=1.2 model=1 kW=0.9850100000000002 kvar=0.2000148113111006 Phases=1

New Load.load_p6ulv22244_2 conn=wye bus1=p6ulv22244.2 kV=0.12 Vminpu=0.8 Vmaxpu=1.2 model=1 kW=0.9850100000000002 kvar=0.2000148113111006 Phases=1

New Load.load_p6ulv22245_1 conn=wye bus1=p6ulv22245.1 kV=0.12 Vminpu=0.8 Vmaxpu=1.2 model=1 kW=0.2700025 kvar=0.054967461924073105 Phases=1

New Load.load_p6ulv22245_2 conn=wye bus1=p6ulv22245.2 kV=0.12 Vminpu=0.8 Vmaxpu=1.2 model=1 kW=0.2700025 kvar=0.054967461924073105 Phases=1

New Load.load_p6ulv22246_1 conn=wye bus1=p6ulv22246.1 kV=0.12 Vminpu=0.8 Vmaxpu=1.2 model=1 kW=1.82502 kvar=0.3696301078868553 Phases=1

New Load.load_p6ulv22246_2 conn=wye bus1=p6ulv22246.2 kV=0.12 Vminpu=0.8 Vmaxpu=1.2 model=1 kW=1.82502 kvar=0.3696301078868553 Phases=1

New Load.load_p6ulv22247_1 conn=wye bus1=p6ulv22247.1 kV=0.12 Vminpu=0.8 Vmaxpu=1.2 model=1 kW=0.560005 kvar=0.11488066330143384 Phases=1
