New Loadshape.res_kw_44719_pu npts= 96 interval=0.25 mult = (file=res_kw_44719_pu.csv) qmult = (file=res_kvar_44719_pu.csv)
New Loadshape.res_kw_22918_pu npts= 96 interval=0.25 mult = (file=res_kw_22918_pu.csv) qmult = (file=res_kvar_22918_pu.csv)
New Loadshape.res_kw_17185_pu npts= 96 interval=0.25 mult = (file=res_kw_17185_pu.csv) qmult = (file=res_kvar_17185_pu.csv)
New Loadshape.res_kw_39923_pu npts= 96 interval=0.25 mult = (file=res_kw_39923_pu.csv) qmult = (file=res_kvar_39923_pu.csv)
New Loadshape.res_kw_12427_pu npts= 96 interval=0.25 mult = (file=res_kw_12427_pu.csv) qmult = (file=res_kvar_12427_pu.csv)
New Loadshape.res_kw_1234_pu npts= 96 interval=0.25 mult = (file=res_kw_1234_pu.csv) qmult = (file=res_kvar_1234_pu.csv)
New Loadshape.res_kw_16409_pu npts= 96 interval=0.25 mult = (file=res_kw_16409_pu.csv) qmult = (file=res_kvar_16409_pu.csv)
New Loadshape.res_kw_9863_pu npts= 96 interval=0.25 mult = (file=res_kw_9863_pu.csv) qmult = (file=res_kvar_9863_pu.csv)
New Loadshape.res_kw_26438_pu npts= 96 interval=0.25 mult = (file=res_kw_26438_pu.csv) qmult = (file=res_kvar_26438_pu.csv)
New Loadshape.res_kw_1409_pu npts= 96 interval=0.25 mult = (file=res_kw_1409_pu.csv) qmult = (file=res_kvar_1409_pu.csv)
New Loadshape.res_kw_4772_pu npts= 96 interval=0.25 mult = (file=res_kw_4772_pu.csv) qmult = (file=res_kvar_4772_pu.csv)
New Loadshape.res_kw_40179_pu npts= 96 interval=0.25 mult = (file=res_kw_40179_pu.csv) qmult = (file=res_kvar_40179_pu.csv)
New Loadshape.res_kw_20573_pu npts= 96 interval=0.25 mult = (file=res_kw_20573_pu.csv) qmult = (file=res_kvar_20573_pu.csv)
New Loadshape.res_kw_37287_pu npts= 96 interval=0.25 mult = (file=res_kw_37287_pu.csv) qmult = (file=res_kvar_37287_pu.csv)
New Loadshape.res_kw_21365_pu npts= 96 interval=0.25 mult = (file=res_kw_21365_pu.csv) qmult = (file=res_kvar_21365_pu.csv)
New Loadshape.res_kw_20177_pu npts= 96 interval=0.25 mult = (file=res_kw_20177_pu.csv) qmult = (file=res_kvar_20177_pu.csv)
New Loadshape.res_kw_42564_pu npts= 96 interval=0.25 mult = (file=res_kw_42564_pu.csv) qmult = (file=res_kvar_42564_pu.csv)
New Loadshape.res_kw_35128_pu npts= 96 interval=0.25 mult = (file=res_kw_35128_pu.csv) qmult = (file=res_kvar_35128_pu.csv)
New Loadshape.res_kw_21451_pu npts= 96 interval=0.25 mult = (file=res_kw_21451_pu.csv) qmult = (file=res_kvar_21451_pu.csv)
New Loadshape.res_kw_13887_pu npts= 96 interval=0.25 mult = (file=res_kw_13887_pu.csv) qmult = (file=res_kvar_13887_pu.csv)
New Loadshape.res_kw_29673_pu npts= 96 interval=0.25 mult = (file=res_kw_29673_pu.csv) qmult = (file=res_kvar_29673_pu.csv)
New Loadshape.res_kw_29794_pu npts= 96 interval=0.25 mult = (file=res_kw_29794_pu.csv) qmult = (file=res_kvar_29794_pu.csv)
New Loadshape.res_kw_8579_pu npts= 96 interval=0.25 mult = (file=res_kw_8579_pu.csv) qmult = (file=res_kvar_8579_pu.csv)
New Loadshape.res_kw_17316_pu npts= 96 interval=0.25 mult = (file=res_kw_17316_pu.csv) qmult = (file=res_kvar_17316_pu.csv)
New Loadshape.res_kw_8275_pu npts= 96 interval=0.25 mult = (file=res_kw_8275_pu.csv) qmult = (file=res_kvar_8275_pu.csv)
New Loadshape.res_kw_40187_pu npts= 96 interval=0.25 mult = (file=res_kw_40187_pu.csv) qmult = (file=res_kvar_40187_pu.csv)
New Loadshape.com_kw_41835_pu npts= 96 interval=0.25 mult = (file=com_kw_41835_pu.csv) qmult = (file=com_kvar_41835_pu.csv)
New Loadshape.com_kw_42147_pu npts= 96 interval=0.25 mult = (file=com_kw_42147_pu.csv) qmult = (file=com_kvar_42147_pu.csv)
New Loadshape.com_kw_42140_pu npts= 96 interval=0.25 mult = (file=com_kw_42140_pu.csv) qmult = (file=com_kvar_42140_pu.csv)
