New Loadshape.1555382_30.38_-97.59_2019 npts= 35040 interval=0.25 mult = (file=1555382_30.38_-97.59_2019.csv)
New Loadshape.1560322_30.32_-97.53_2019 npts= 35040 interval=0.25 mult = (file=1560322_30.32_-97.53_2019.csv)
