New Line.l(r:p1rdt2205lv-p1rlv4346) Units=km Length=0.001 bus1=p1rdt2205lv.1.2 bus2=p1rlv4346.1.2 switch=n enabled=y phases=2 Linecode=1P_OH_AL_4_Periwinkle_2

New Line.l(r:p1rdm4388-p1rlv4347) Units=km Length=0.140777 bus1=p1rdm4388.1.2 bus2=p1rlv4347.1.2 switch=n enabled=y phases=2 Linecode=1P_OH_AL_4/0_Zuzara_2

New Line.l(r:p1rdm4388-p1rdt2206lv) Units=km Length=0.0239713 bus1=p1rdt2206lv.1.2 bus2=p1rdm4388.1.2 switch=n enabled=y phases=2 Linecode=1P_OH_AL_2/0_Rucina_2

New Line.l(r:p1rdm4389-p1rlv8541) Units=km Length=0.0229196 bus1=p1rdm4389.1.2 bus2=p1rlv8541.1.2 switch=n enabled=y phases=2 Linecode=1P_OH_AL_2/0_Rucina_2

New Line.l(r:p1rdm4389-p1rdt2206lv) Units=km Length=0.0134497 bus1=p1rdt2206lv.1.2 bus2=p1rdm4389.1.2 switch=n enabled=y phases=2 Linecode=1P_OH_AL_2/0_Rucina_2

New Line.l(r:p1rdm4392-p1rlv8538) Units=km Length=0.0130607 bus1=p1rdm4392.1.2 bus2=p1rlv8538.1.2 switch=n enabled=y phases=2 Linecode=1P_OH_AL_2/0_Rucina_2

New Line.l(r:p1rdm4391-p1rlv8537) Units=km Length=0.0177844 bus1=p1rdm4391.1.2 bus2=p1rlv8537.1.2 switch=n enabled=y phases=2 Linecode=1P_OH_AL_2/0_Rucina_2

New Line.l(r:p1rdm4391-p1rdm4392) Units=km Length=0.0142263 bus1=p1rdm4392.1.2 bus2=p1rdm4391.1.2 switch=n enabled=y phases=2 Linecode=1P_OH_AL_2/0_Rucina_2

New Line.l(r:p1rdm4392-p1rdt2207lv) Units=km Length=0.034886200000000006 bus1=p1rdt2207lv.1.2 bus2=p1rdm4392.1.2 switch=n enabled=y phases=2 Linecode=1P_OH_AL_4/0_Zuzara_2

New Line.l(r:p1rdm4393-p1rlv8540) Units=km Length=0.0236267 bus1=p1rdm4393.1.2 bus2=p1rlv8540.1.2 switch=n enabled=y phases=2 Linecode=1P_OH_AL_2/0_Rucina_2

New Line.l(r:p1rdm4390-p1rlv4348) Units=km Length=0.0104583 bus1=p1rdm4390.1.2 bus2=p1rlv4348.1.2 switch=n enabled=y phases=2 Linecode=1P_OH_AL_2/0_Rucina_2

New Line.l(r:p1rdm4390-p1rdm4393) Units=km Length=0.0372401 bus1=p1rdm4393.1.2 bus2=p1rdm4390.1.2 switch=n enabled=y phases=2 Linecode=1P_OH_AL_4/0_Zuzara_2

New Line.l(r:p1rdm4393-p1rdt2207lv) Units=km Length=0.0208241 bus1=p1rdt2207lv.1.2 bus2=p1rdm4393.1.2 switch=n enabled=y phases=2 Linecode=1P_OH_AL_2/0_Rucina_2

New Line.l(r:p1rdt2208lv-p1rlv4354) Units=km Length=0.00678965 bus1=p1rdt2208lv.1.2 bus2=p1rlv4354.1.2 switch=n enabled=y phases=2 Linecode=1P_OH_AL_2/0_Rucina_2

New Line.l(r:p1rdm4394-p1rlv4349) Units=km Length=0.0288011 bus1=p1rdm4394.1.2 bus2=p1rlv4349.1.2 switch=n enabled=y phases=2 Linecode=1P_OH_AL_4/0_Zuzara_2

New Line.l(r:p1rdm4394-p1rdt2208lv) Units=km Length=0.0105801 bus1=p1rdt2208lv.1.2 bus2=p1rdm4394.1.2 switch=n enabled=y phases=2 Linecode=1P_OH_AL_2/0_Rucina_2

New Line.l(r:p1rdm4395-p1rlv4353) Units=km Length=0.0237556 bus1=p1rdm4395.1.2 bus2=p1rlv4353.1.2 switch=n enabled=y phases=2 Linecode=1P_OH_AL_2/0_Rucina_2

New Line.l(r:p1rdm4395-p1rdt2208lv) Units=km Length=0.0412819 bus1=p1rdt2208lv.1.2 bus2=p1rdm4395.1.2 switch=n enabled=y phases=2 Linecode=1P_OH_AL_4/0_Zuzara_2

New Line.l(r:p1rdt2209lv-p1rlv4350) Units=km Length=0.0143955 bus1=p1rdt2209lv.1.2 bus2=p1rlv4350.1.2 switch=n enabled=y phases=2 Linecode=1P_OH_AL_2/0_Rucina_2

New Line.l(r:p1rdm4398-p1rlv4356) Units=km Length=0.017394800000000002 bus1=p1rdm4398.1.2 bus2=p1rlv4356.1.2 switch=n enabled=y phases=2 Linecode=1P_OH_AL_2/0_Rucina_2

New Line.l(r:p1rdm4398-p1rdt2209lv) Units=km Length=0.01609 bus1=p1rdt2209lv.1.2 bus2=p1rdm4398.1.2 switch=n enabled=y phases=2 Linecode=1P_OH_AL_2/0_Rucina_2

New Line.l(r:p1rdm4399-p1rlv9591) Units=km Length=0.0192122 bus1=p1rdm4399.1.2 bus2=p1rlv9591.1.2 switch=n enabled=y phases=2 Linecode=1P_OH_AL_2/0_Rucina_2

New Line.l(r:p1rdm4399-p1rdt2209lv) Units=km Length=0.0341501 bus1=p1rdt2209lv.1.2 bus2=p1rdm4399.1.2 switch=n enabled=y phases=2 Linecode=1P_OH_AL_4/0_Zuzara_2

New Line.l(r:p1rdm4400-p1rlv4351) Units=km Length=0.013979000000000002 bus1=p1rdm4400.1.2 bus2=p1rlv4351.1.2 switch=n enabled=y phases=2 Linecode=1P_OH_AL_2/0_Rucina_2

New Line.l(r:p1rdm4400-p1rdt2210lv) Units=km Length=0.0397375 bus1=p1rdt2210lv.1.2 bus2=p1rdm4400.1.2 switch=n enabled=y phases=2 Linecode=1P_OH_AL_4/0_Zuzara_2

New Line.l(r:p1rdm4401-p1rlv4355) Units=km Length=0.00916812 bus1=p1rdm4401.1.2 bus2=p1rlv4355.1.2 switch=n enabled=y phases=2 Linecode=1P_OH_AL_2/0_Rucina_2

New Line.l(r:p1rdm4401-p1rdt2210lv) Units=km Length=0.03973770000000001 bus1=p1rdt2210lv.1.2 bus2=p1rdm4401.1.2 switch=n enabled=y phases=2 Linecode=1P_OH_AL_4/0_Zuzara_2

New Line.l(r:p1rdt2211lv-p1rlv4352) Units=km Length=0.0174008 bus1=p1rdt2211lv.1.2 bus2=p1rlv4352.1.2 switch=n enabled=y phases=2 Linecode=1P_OH_AL_2/0_Rucina_2

New Line.l(r:p1rdt2212lv-p1rlv4357) Units=km Length=0.001 bus1=p1rdt2212lv.1.2 bus2=p1rlv4357.1.2 switch=n enabled=y phases=2 Linecode=1P_OH_AL_4_Periwinkle_2

New Line.l(r:p1rdt2213lv-p1rlv4358) Units=km Length=0.001 bus1=p1rdt2213lv.1.2 bus2=p1rlv4358.1.2 switch=n enabled=y phases=2 Linecode=1P_OH_AL_4_Periwinkle_2

New Line.l(r:p1rdt2334lv-p1rlv4614) Units=km Length=0.0171482 bus1=p1rdt2334lv.1.2 bus2=p1rlv4614.1.2 switch=n enabled=y phases=2 Linecode=1P_OH_AL_2/0_Rucina_2

New Line.l(r:p1rdt2335lv-p1rlv4615) Units=km Length=0.00704035 bus1=p1rdt2335lv.1.2 bus2=p1rlv4615.1.2 switch=n enabled=y phases=2 Linecode=1P_OH_AL_2/0_Rucina_2

New Line.l(r:p1rdt2337lv-p1rlv4617) Units=km Length=0.0104395 bus1=p1rdt2337lv.1.2 bus2=p1rlv4617.1.2 switch=n enabled=y phases=2 Linecode=1P_OH_AL_2/0_Rucina_2

New Line.l(r:p1rdm4664-p1rlv4621) Units=km Length=0.013899900000000001 bus1=p1rdm4664.1.2 bus2=p1rlv4621.1.2 switch=n enabled=y phases=2 Linecode=1P_UG_AL_1/0_Brenau_2

New Line.l(r:p1rdm4664-p1rdt2338lv) Units=km Length=0.029147 bus1=p1rdt2338lv.1.2 bus2=p1rdm4664.1.2 switch=n enabled=y phases=2 Linecode=1P_UG_AL_1/0_Brenau_2

New Line.l(r:p1rdm4665-p1rlv4625) Units=km Length=0.0156154 bus1=p1rdm4665.1.2 bus2=p1rlv4625.1.2 switch=n enabled=y phases=2 Linecode=1P_UG_AL_1/0_Brenau_2

New Line.l(r:p1rdm4663-p1rlv4618) Units=km Length=0.0124804 bus1=p1rdm4663.1.2 bus2=p1rlv4618.1.2 switch=n enabled=y phases=2 Linecode=1P_UG_AL_1/0_Brenau_2

New Line.l(r:p1rdm4663-p1rdm4665) Units=km Length=0.0267878 bus1=p1rdm4665.1.2 bus2=p1rdm4663.1.2 switch=n enabled=y phases=2 Linecode=1P_UG_AL_1/0_Brenau_2

New Line.l(r:p1rdm4665-p1rdt2338lv) Units=km Length=0.00971682 bus1=p1rdt2338lv.1.2 bus2=p1rdm4665.1.2 switch=n enabled=y phases=2 Linecode=1P_UG_AL_1/0_Brenau_2

New Line.l(r:p1rdm4667-p1rlv4639) Units=km Length=0.0118915 bus1=p1rdm4667.1.2 bus2=p1rlv4639.1.2 switch=n enabled=y phases=2 Linecode=1P_UG_AL_1/0_Brenau_2

New Line.l(r:p1rdm4670-p1rlv4645) Units=km Length=0.0215008 bus1=p1rdm4670.1.2 bus2=p1rlv4645.1.2 switch=n enabled=y phases=2 Linecode=1P_UG_AL_1/0_Brenau_2

New Line.l(r:p1rdm4666-p1rlv4619) Units=km Length=0.011758 bus1=p1rdm4666.1.2 bus2=p1rlv4619.1.2 switch=n enabled=y phases=2 Linecode=1P_UG_AL_1/0_Brenau_2

New Line.l(r:p1rdm4666-p1rdm4670) Units=km Length=0.00763094 bus1=p1rdm4670.1.2 bus2=p1rdm4666.1.2 switch=n enabled=y phases=2 Linecode=1P_UG_AL_1/0_Brenau_2

New Line.l(r:p1rdm4667-p1rdm4670) Units=km Length=0.0228981 bus1=p1rdm4667.1.2 bus2=p1rdm4670.1.2 switch=n enabled=y phases=2 Linecode=1P_UG_AL_1/0_Brenau_2

New Line.l(r:p1rdm4667-p1rdt2339lv) Units=km Length=0.00950827 bus1=p1rdt2339lv.1.2 bus2=p1rdm4667.1.2 switch=n enabled=y phases=2 Linecode=1P_UG_AL_1/0_Brenau_2

New Line.l(r:p1rdm4668-p1rlv4640) Units=km Length=0.0151616 bus1=p1rdm4668.1.2 bus2=p1rlv4640.1.2 switch=n enabled=y phases=2 Linecode=1P_UG_AL_1/0_Brenau_2

New Line.l(r:p1rdm4669-p1rlv4644) Units=km Length=0.00658636 bus1=p1rdm4669.1.2 bus2=p1rlv4644.1.2 switch=n enabled=y phases=2 Linecode=1P_UG_AL_1/0_Brenau_2

New Line.l(r:p1rdm4668-p1rdm4669) Units=km Length=0.0548052 bus1=p1rdm4668.1.2 bus2=p1rdm4669.1.2 switch=n enabled=y phases=2 Linecode=1P_UG_AL_1/0_Brenau_2

New Line.l(r:p1rdm4668-p1rdt2339lv) Units=km Length=0.057269 bus1=p1rdt2339lv.1.2 bus2=p1rdm4668.1.2 switch=n enabled=y phases=2 Linecode=1P_UG_AL_1/0_Brenau_2

New Line.l(r:p1rdm4671-p1rlv4620) Units=km Length=0.00981412 bus1=p1rdm4671.1.2 bus2=p1rlv4620.1.2 switch=n enabled=y phases=2 Linecode=1P_UG_AL_1/0_Brenau_2

New Line.l(r:p1rdm4671-p1rdt2340lv) Units=km Length=0.0180619 bus1=p1rdt2340lv.1.2 bus2=p1rdm4671.1.2 switch=n enabled=y phases=2 Linecode=1P_UG_AL_1/0_Brenau_2

New Line.l(r:p1rdm4672-p1rlv4623) Units=km Length=0.006277790000000001 bus1=p1rdm4672.1.2 bus2=p1rlv4623.1.2 switch=n enabled=y phases=2 Linecode=1P_UG_AL_1/0_Brenau_2

New Line.l(r:p1rdm4672-p1rdt2340lv) Units=km Length=0.00902273 bus1=p1rdt2340lv.1.2 bus2=p1rdm4672.1.2 switch=n enabled=y phases=2 Linecode=1P_UG_AL_1/0_Brenau_2

New Line.l(r:p1rdm4673-p1rlv4622) Units=km Length=0.0129543 bus1=p1rdm4673.1.2 bus2=p1rlv4622.1.2 switch=n enabled=y phases=2 Linecode=1P_UG_AL_1/0_Brenau_2

New Line.l(r:p1rdm4673-p1rdt2341lv) Units=km Length=0.038902400000000004 bus1=p1rdt2341lv.1.2 bus2=p1rdm4673.1.2 switch=n enabled=y phases=2 Linecode=1P_UG_AL_1/0_Brenau_2

New Line.l(r:p1rdm4674-p1rlv4624) Units=km Length=0.00535855 bus1=p1rdm4674.1.2 bus2=p1rlv4624.1.2 switch=n enabled=y phases=2 Linecode=1P_UG_AL_1/0_Brenau_2

New Line.l(r:p1rdm4674-p1rdt2341lv) Units=km Length=0.0655641 bus1=p1rdt2341lv.1.2 bus2=p1rdm4674.1.2 switch=n enabled=y phases=2 Linecode=1P_UG_AL_1/0_Brenau_2

New Line.l(r:p1rdm4675-p1rlv4631) Units=km Length=0.0150047 bus1=p1rdm4675.1.2 bus2=p1rlv4631.1.2 switch=n enabled=y phases=2 Linecode=1P_UG_AL_1/0_Brenau_2

New Line.l(r:p1rdm4675-p1rdt2341lv) Units=km Length=0.0941898 bus1=p1rdt2341lv.1.2 bus2=p1rdm4675.1.2 switch=n enabled=y phases=2 Linecode=1P_UG_AL_1/0_Brenau_2

New Line.l(r:p1rdm4676-p1rlv4626) Units=km Length=0.0121241 bus1=p1rdm4676.1.2 bus2=p1rlv4626.1.2 switch=n enabled=y phases=2 Linecode=1P_UG_AL_1/0_Brenau_2

New Line.l(r:p1rdm4676-p1rlv4627) Units=km Length=0.00328219 bus1=p1rdm4676.1.2 bus2=p1rlv4627.1.2 switch=n enabled=y phases=2 Linecode=1P_UG_AL_1/0_Brenau_2

New Line.l(r:p1rdm4676-p1rdt2342lv) Units=km Length=0.00946474 bus1=p1rdt2342lv.1.2 bus2=p1rdm4676.1.2 switch=n enabled=y phases=2 Linecode=1P_UG_AL_1/0_Brenau_2

New Line.l(r:p1rdm4678-p1rlv4628) Units=km Length=0.00810386 bus1=p1rdm4678.1.2 bus2=p1rlv4628.1.2 switch=n enabled=y phases=2 Linecode=1P_UG_AL_1/0_Brenau_2

New Line.l(r:p1rdm4678-p1rdt2342lv) Units=km Length=0.0195261 bus1=p1rdt2342lv.1.2 bus2=p1rdm4678.1.2 switch=n enabled=y phases=2 Linecode=1P_UG_AL_1/0_Brenau_2

New Line.l(r:p1rdm4679-p1rlv4629) Units=km Length=0.014976 bus1=p1rdm4679.1.2 bus2=p1rlv4629.1.2 switch=n enabled=y phases=2 Linecode=1P_UG_AL_1/0_Brenau_2

New Line.l(r:p1rdm4679-p1rdt2343lv) Units=km Length=0.0144978 bus1=p1rdt2343lv.1.2 bus2=p1rdm4679.1.2 switch=n enabled=y phases=2 Linecode=1P_UG_AL_1/0_Brenau_2

New Line.l(r:p1rdm4680-p1rlv4633) Units=km Length=0.017019700000000002 bus1=p1rdm4680.1.2 bus2=p1rlv4633.1.2 switch=n enabled=y phases=2 Linecode=1P_UG_AL_1/0_Brenau_2

New Line.l(r:p1rdm4680-p1rdt2343lv) Units=km Length=0.00757243 bus1=p1rdt2343lv.1.2 bus2=p1rdm4680.1.2 switch=n enabled=y phases=2 Linecode=1P_UG_AL_1/0_Brenau_2

New Line.l(r:p1rdm4682-p1rlv4634) Units=km Length=0.00756604 bus1=p1rdm4682.1.2 bus2=p1rlv4634.1.2 switch=n enabled=y phases=2 Linecode=1P_UG_AL_1/0_Brenau_2

New Line.l(r:p1rdm4681-p1rlv4630) Units=km Length=0.0172146 bus1=p1rdm4681.1.2 bus2=p1rlv4630.1.2 switch=n enabled=y phases=2 Linecode=1P_UG_AL_1/0_Brenau_2

New Line.l(r:p1rdm4681-p1rdm4682) Units=km Length=0.00953639 bus1=p1rdm4682.1.2 bus2=p1rdm4681.1.2 switch=n enabled=y phases=2 Linecode=1P_UG_AL_1/0_Brenau_2

New Line.l(r:p1rdm4682-p1rdt2344lv) Units=km Length=0.00938626 bus1=p1rdt2344lv.1.2 bus2=p1rdm4682.1.2 switch=n enabled=y phases=2 Linecode=1P_UG_AL_1/0_Brenau_2

New Line.l(r:p1rdm4683-p1rlv4635) Units=km Length=0.0113582 bus1=p1rdm4683.1.2 bus2=p1rlv4635.1.2 switch=n enabled=y phases=2 Linecode=1P_UG_AL_1/0_Brenau_2

New Line.l(r:p1rdm4683-p1rdt2344lv) Units=km Length=0.0218783 bus1=p1rdt2344lv.1.2 bus2=p1rdm4683.1.2 switch=n enabled=y phases=2 Linecode=1P_UG_AL_1/0_Brenau_2

New Line.l(r:p1rdm4684-p1rlv4632) Units=km Length=0.0148477 bus1=p1rdm4684.1.2 bus2=p1rlv4632.1.2 switch=n enabled=y phases=2 Linecode=1P_UG_AL_1/0_Brenau_2

New Line.l(r:p1rdm4684-p1rdt2345lv) Units=km Length=0.017485700000000003 bus1=p1rdt2345lv.1.2 bus2=p1rdm4684.1.2 switch=n enabled=y phases=2 Linecode=1P_UG_AL_1/0_Brenau_2

New Line.l(r:p1rdm4685-p1rlv4643) Units=km Length=0.00885692 bus1=p1rdm4685.1.2 bus2=p1rlv4643.1.2 switch=n enabled=y phases=2 Linecode=1P_UG_AL_1/0_Brenau_2

New Line.l(r:p1rdm4685-p1rdt2345lv) Units=km Length=0.00533923 bus1=p1rdt2345lv.1.2 bus2=p1rdm4685.1.2 switch=n enabled=y phases=2 Linecode=1P_UG_AL_1/0_Brenau_2

New Line.l(r:p1rdm4686-p1rlv4636) Units=km Length=0.0279091 bus1=p1rdm4686.1.2 bus2=p1rlv4636.1.2 switch=n enabled=y phases=2 Linecode=1P_UG_AL_1/0_Brenau_2

New Line.l(r:p1rdm4686-p1rdt2346lv) Units=km Length=0.0165128 bus1=p1rdt2346lv.1.2 bus2=p1rdm4686.1.2 switch=n enabled=y phases=2 Linecode=1P_UG_AL_1/0_Brenau_2

New Line.l(r:p1rdm4687-p1rlv4637) Units=km Length=0.026809900000000005 bus1=p1rdm4687.1.2 bus2=p1rlv4637.1.2 switch=n enabled=y phases=2 Linecode=1P_UG_AL_1/0_Brenau_2

New Line.l(r:p1rdm4687-p1rdt2346lv) Units=km Length=0.0103344 bus1=p1rdt2346lv.1.2 bus2=p1rdm4687.1.2 switch=n enabled=y phases=2 Linecode=1P_UG_AL_1/0_Brenau_2

New Line.l(r:p1rdm4688-p1rlv4638) Units=km Length=0.0239879 bus1=p1rdm4688.1.2 bus2=p1rlv4638.1.2 switch=n enabled=y phases=2 Linecode=1P_UG_AL_1/0_Brenau_2

New Line.l(r:p1rdm4688-p1rdt2347lv) Units=km Length=0.0377806 bus1=p1rdt2347lv.1.2 bus2=p1rdm4688.1.2 switch=n enabled=y phases=2 Linecode=1P_OH_AL_4/0_Zuzara_2

New Line.l(r:p1rdm4690-p1rlv4642) Units=km Length=0.00648908 bus1=p1rdm4690.1.2 bus2=p1rlv4642.1.2 switch=n enabled=y phases=2 Linecode=1P_OH_AL_2/0_Rucina_2

New Line.l(r:p1rdm4689-p1rlv4641) Units=km Length=0.0152303 bus1=p1rdm4689.1.2 bus2=p1rlv4641.1.2 switch=n enabled=y phases=2 Linecode=1P_OH_AL_2/0_Rucina_2

New Line.l(r:p1rdm4689-p1rdm4690) Units=km Length=0.0737367 bus1=p1rdm4690.1.2 bus2=p1rdm4689.1.2 switch=n enabled=y phases=2 Linecode=1P_OH_AL_4/0_Zuzara_2

New Line.l(r:p1rdm4690-p1rdt2347lv) Units=km Length=0.00622807 bus1=p1rdt2347lv.1.2 bus2=p1rdm4690.1.2 switch=n enabled=y phases=2 Linecode=1P_OH_AL_2/0_Rucina_2

New Line.l(r:p1rdt2348lv-p1rlv4646) Units=km Length=0.0594827 bus1=p1rdt2348lv.1.2 bus2=p1rlv4646.1.2 switch=n enabled=y phases=2 Linecode=1P_OH_AL_4/0_Zuzara_2

New Line.l(r:p1rdt2349lv-p1rlv4649) Units=km Length=0.0060353 bus1=p1rdt2349lv.1.2 bus2=p1rlv4649.1.2 switch=n enabled=y phases=2 Linecode=1P_OH_AL_2/0_Rucina_2

New Line.l(r:p1rdm4692-p1rlv4647) Units=km Length=0.00865197 bus1=p1rdm4692.1.2 bus2=p1rlv4647.1.2 switch=n enabled=y phases=2 Linecode=1P_OH_AL_2/0_Rucina_2

New Line.l(r:p1rdm4692-p1rdt2349lv) Units=km Length=0.0107094 bus1=p1rdt2349lv.1.2 bus2=p1rdm4692.1.2 switch=n enabled=y phases=2 Linecode=1P_OH_AL_2/0_Rucina_2

New Line.l(r:p1rdm4693-p1rlv4648) Units=km Length=0.0185051 bus1=p1rdm4693.1.2 bus2=p1rlv4648.1.2 switch=n enabled=y phases=2 Linecode=1P_OH_AL_2/0_Rucina_2

New Line.l(r:p1rdm4693-p1rdt2349lv) Units=km Length=0.0107145 bus1=p1rdt2349lv.1.2 bus2=p1rdm4693.1.2 switch=n enabled=y phases=2 Linecode=1P_OH_AL_2/0_Rucina_2

New Line.l(r:p1rdm4695-p1rlv4650) Units=km Length=0.012617 bus1=p1rdm4695.1.2 bus2=p1rlv4650.1.2 switch=n enabled=y phases=2 Linecode=1P_OH_AL_2/0_Rucina_2

New Line.l(r:p1rdm4695-p1rdt2350lv) Units=km Length=0.0223858 bus1=p1rdt2350lv.1.2 bus2=p1rdm4695.1.2 switch=n enabled=y phases=2 Linecode=1P_OH_AL_2/0_Rucina_2

New Line.l(r:p1rdm4696-p1rlv9450) Units=km Length=0.0143416 bus1=p1rdm4696.1.2 bus2=p1rlv9450.1.2 switch=n enabled=y phases=2 Linecode=1P_OH_AL_2/0_Rucina_2

New Line.l(r:p1rdm4696-p1rdt2350lv) Units=km Length=0.024517700000000003 bus1=p1rdt2350lv.1.2 bus2=p1rdm4696.1.2 switch=n enabled=y phases=2 Linecode=1P_OH_AL_2/0_Rucina_2

New Line.l(r:p1rdt2351lv-p1rlv4673) Units=km Length=0.013709500000000001 bus1=p1rdt2351lv.1.2 bus2=p1rlv4673.1.2 switch=n enabled=y phases=2 Linecode=1P_OH_AL_2/0_Rucina_2

New Line.l(r:p1rdm4697-p1rlv4651) Units=km Length=0.0153386 bus1=p1rdm4697.1.2 bus2=p1rlv4651.1.2 switch=n enabled=y phases=2 Linecode=1P_OH_AL_2/0_Rucina_2

New Line.l(r:p1rdm4698-p1rlv4666) Units=km Length=0.0117889 bus1=p1rdm4698.1.2 bus2=p1rlv4666.1.2 switch=n enabled=y phases=2 Linecode=1P_OH_AL_2/0_Rucina_2

New Line.l(r:p1rdm4697-p1rdm4698) Units=km Length=0.04469920000000001 bus1=p1rdm4697.1.2 bus2=p1rdm4698.1.2 switch=n enabled=y phases=2 Linecode=1P_OH_AL_4/0_Zuzara_2

New Line.l(r:p1rdm4697-p1rdt2351lv) Units=km Length=0.0270523 bus1=p1rdt2351lv.1.2 bus2=p1rdm4697.1.2 switch=n enabled=y phases=2 Linecode=1P_OH_AL_4/0_Zuzara_2

New Line.l(r:p1rdm4701-p1rlv4672) Units=km Length=0.0333509 bus1=p1rdm4701.1.2 bus2=p1rlv4672.1.2 switch=n enabled=y phases=2 Linecode=1P_OH_AL_4/0_Zuzara_2

New Line.l(r:p1rdm4700-p1rlv4671) Units=km Length=0.0200923 bus1=p1rdm4700.1.2 bus2=p1rlv4671.1.2 switch=n enabled=y phases=2 Linecode=1P_OH_AL_2/0_Rucina_2

New Line.l(r:p1rdm4699-p1rlv4667) Units=km Length=0.0162547 bus1=p1rdm4699.1.2 bus2=p1rlv4667.1.2 switch=n enabled=y phases=2 Linecode=1P_OH_AL_2/0_Rucina_2

New Line.l(r:p1rdm4699-p1rdm4700) Units=km Length=0.015269500000000002 bus1=p1rdm4700.1.2 bus2=p1rdm4699.1.2 switch=n enabled=y phases=2 Linecode=1P_OH_AL_2/0_Rucina_2

New Line.l(r:p1rdm4700-p1rdm4701) Units=km Length=0.0661686 bus1=p1rdm4701.1.2 bus2=p1rdm4700.1.2 switch=n enabled=y phases=2 Linecode=1P_OH_AL_4/0_Zuzara_2

New Line.l(r:p1rdm4701-p1rdt2351lv) Units=km Length=0.0649503 bus1=p1rdt2351lv.1.2 bus2=p1rdm4701.1.2 switch=n enabled=y phases=2 Linecode=1P_OH_AL_4/0_Zuzara_2

New Line.l(r:p1rdt2352lv-p1rlv4652) Units=km Length=0.0113207 bus1=p1rdt2352lv.1.2 bus2=p1rlv4652.1.2 switch=n enabled=y phases=2 Linecode=1P_OH_AL_2/0_Rucina_2

New Line.l(r:p1rdm4704-p1rlv4653) Units=km Length=0.015809 bus1=p1rdm4704.1.2 bus2=p1rlv4653.1.2 switch=n enabled=y phases=2 Linecode=1P_OH_AL_2/0_Rucina_2

New Line.l(r:p1rdm4704-p1rdt2352lv) Units=km Length=0.0116846 bus1=p1rdt2352lv.1.2 bus2=p1rdm4704.1.2 switch=n enabled=y phases=2 Linecode=1P_OH_AL_2/0_Rucina_2

New Line.l(r:p1rdm4705-p1rlv4654) Units=km Length=0.00883009 bus1=p1rdm4705.1.2 bus2=p1rlv4654.1.2 switch=n enabled=y phases=2 Linecode=1P_OH_AL_2/0_Rucina_2

New Line.l(r:p1rdm4705-p1rdt2353lv) Units=km Length=0.00738366 bus1=p1rdt2353lv.1.2 bus2=p1rdm4705.1.2 switch=n enabled=y phases=2 Linecode=1P_OH_AL_2/0_Rucina_2

New Line.l(r:p1rdm4706-p1rlv4655) Units=km Length=0.013343 bus1=p1rdm4706.1.2 bus2=p1rlv4655.1.2 switch=n enabled=y phases=2 Linecode=1P_OH_AL_2/0_Rucina_2

New Line.l(r:p1rdm4706-p1rdt2353lv) Units=km Length=0.008021 bus1=p1rdt2353lv.1.2 bus2=p1rdm4706.1.2 switch=n enabled=y phases=2 Linecode=1P_OH_AL_2/0_Rucina_2

New Line.l(r:p1rdt2354lv-p1rlv4657) Units=km Length=0.014648600000000001 bus1=p1rdt2354lv.1.2 bus2=p1rlv4657.1.2 switch=n enabled=y phases=2 Linecode=1P_OH_AL_2/0_Rucina_2

New Line.l(r:p1rdt2354lv-p1rlv4687) Units=km Length=0.022572 bus1=p1rdt2354lv.1.2 bus2=p1rlv4687.1.2 switch=n enabled=y phases=2 Linecode=1P_OH_AL_2/0_Rucina_2

New Line.l(r:p1rdm4707-p1rlv4656) Units=km Length=0.017195900000000004 bus1=p1rdm4707.1.2 bus2=p1rlv4656.1.2 switch=n enabled=y phases=2 Linecode=1P_OH_AL_2/0_Rucina_2

New Line.l(r:p1rdm4707-p1rdt2354lv) Units=km Length=0.0264288 bus1=p1rdt2354lv.1.2 bus2=p1rdm4707.1.2 switch=n enabled=y phases=2 Linecode=1P_OH_AL_2/0_Rucina_2

New Line.l(r:p1rdm4709-p1rlv4659) Units=km Length=0.0103745 bus1=p1rdm4709.1.2 bus2=p1rlv4659.1.2 switch=n enabled=y phases=2 Linecode=1P_OH_AL_2/0_Rucina_2

New Line.l(r:p1rdm4710-p1rlv4686) Units=km Length=0.0331363 bus1=p1rdm4710.1.2 bus2=p1rlv4686.1.2 switch=n enabled=y phases=2 Linecode=1P_OH_AL_4/0_Zuzara_2

New Line.l(r:p1rdm4709-p1rdm4710) Units=km Length=0.014019700000000001 bus1=p1rdm4709.1.2 bus2=p1rdm4710.1.2 switch=n enabled=y phases=2 Linecode=1P_OH_AL_2/0_Rucina_2

New Line.l(r:p1rdm4709-p1rdt2354lv) Units=km Length=0.0223367 bus1=p1rdt2354lv.1.2 bus2=p1rdm4709.1.2 switch=n enabled=y phases=2 Linecode=1P_OH_AL_2/0_Rucina_2

New Line.l(r:p1rdm4712-p1rlv4658) Units=km Length=0.0154337 bus1=p1rdm4712.1.2 bus2=p1rlv4658.1.2 switch=n enabled=y phases=2 Linecode=1P_OH_AL_2/0_Rucina_2

New Line.l(r:p1rdm4712-p1rlv4661) Units=km Length=0.0244263 bus1=p1rdm4712.1.2 bus2=p1rlv4661.1.2 switch=n enabled=y phases=2 Linecode=1P_OH_AL_2/0_Rucina_2

New Line.l(r:p1rdm4712-p1rdt2355lv) Units=km Length=0.0342016 bus1=p1rdt2355lv.1.2 bus2=p1rdm4712.1.2 switch=n enabled=y phases=2 Linecode=1P_OH_AL_4/0_Zuzara_2

New Line.l(r:p1rdm4714-p1rlv4665) Units=km Length=0.0141563 bus1=p1rdm4714.1.2 bus2=p1rlv4665.1.2 switch=n enabled=y phases=2 Linecode=1P_OH_AL_2/0_Rucina_2

New Line.l(r:p1rdm4714-p1rdt2355lv) Units=km Length=0.0579725 bus1=p1rdt2355lv.1.2 bus2=p1rdm4714.1.2 switch=n enabled=y phases=2 Linecode=1P_OH_AL_4/0_Zuzara_2

New Line.l(r:p1rdm4715-p1rlv4660) Units=km Length=0.00942828 bus1=p1rdm4715.1.2 bus2=p1rlv4660.1.2 switch=n enabled=y phases=2 Linecode=1P_OH_AL_2/0_Rucina_2

New Line.l(r:p1rdm4715-p1rdt2356lv) Units=km Length=0.0227326 bus1=p1rdt2356lv.1.2 bus2=p1rdm4715.1.2 switch=n enabled=y phases=2 Linecode=1P_OH_AL_2/0_Rucina_2

New Line.l(r:p1rdm4716-p1rlv4674) Units=km Length=0.0191029 bus1=p1rdm4716.1.2 bus2=p1rlv4674.1.2 switch=n enabled=y phases=2 Linecode=1P_OH_AL_2/0_Rucina_2

New Line.l(r:p1rdm4716-p1rdt2356lv) Units=km Length=0.0136331 bus1=p1rdt2356lv.1.2 bus2=p1rdm4716.1.2 switch=n enabled=y phases=2 Linecode=1P_OH_AL_2/0_Rucina_2

New Line.l(r:p1rdm4717-p1rlv4662) Units=km Length=0.0272803 bus1=p1rdm4717.1.2 bus2=p1rlv4662.1.2 switch=n enabled=y phases=2 Linecode=1P_OH_AL_4/0_Zuzara_2

New Line.l(r:p1rdm4717-p1rlv4663) Units=km Length=0.0129246 bus1=p1rdm4717.1.2 bus2=p1rlv4663.1.2 switch=n enabled=y phases=2 Linecode=1P_OH_AL_2/0_Rucina_2

New Line.l(r:p1rdm4719-p1rlv4664) Units=km Length=0.0231851 bus1=p1rdm4719.1.2 bus2=p1rlv4664.1.2 switch=n enabled=y phases=2 Linecode=1P_OH_AL_2/0_Rucina_2

New Line.l(r:p1rdm4717-p1rdm4719) Units=km Length=0.00725096 bus1=p1rdm4717.1.2 bus2=p1rdm4719.1.2 switch=n enabled=y phases=2 Linecode=1P_OH_AL_2/0_Rucina_2

New Line.l(r:p1rdm4717-p1rdt2357lv) Units=km Length=0.00766975 bus1=p1rdt2357lv.1.2 bus2=p1rdm4717.1.2 switch=n enabled=y phases=2 Linecode=1P_OH_AL_2/0_Rucina_2

New Line.l(r:p1rdm4720-p1rlv5998) Units=km Length=0.018609 bus1=p1rdm4720.1.2 bus2=p1rlv5998.1.2 switch=n enabled=y phases=2 Linecode=1P_OH_AL_2/0_Rucina_2

New Line.l(r:p1rdm4720-p1rdt2357lv) Units=km Length=0.0687492 bus1=p1rdt2357lv.1.2 bus2=p1rdm4720.1.2 switch=n enabled=y phases=2 Linecode=1P_OH_AL_4/0_Zuzara_2

New Line.l(r:p1rdt2358lv-p1rlv4669) Units=km Length=0.0235711 bus1=p1rdt2358lv.1.2 bus2=p1rlv4669.1.2 switch=n enabled=y phases=2 Linecode=1P_OH_AL_2/0_Rucina_2

New Line.l(r:p1rdm4721-p1rlv4668) Units=km Length=0.0247852 bus1=p1rdm4721.1.2 bus2=p1rlv4668.1.2 switch=n enabled=y phases=2 Linecode=1P_OH_AL_2/0_Rucina_2

New Line.l(r:p1rdm4721-p1rdt2358lv) Units=km Length=0.0149142 bus1=p1rdt2358lv.1.2 bus2=p1rdm4721.1.2 switch=n enabled=y phases=2 Linecode=1P_OH_AL_2/0_Rucina_2

New Line.l(r:p1rdm4723-p1rlv4670) Units=km Length=0.0128561 bus1=p1rdm4723.1.2 bus2=p1rlv4670.1.2 switch=n enabled=y phases=2 Linecode=1P_OH_AL_2/0_Rucina_2

New Line.l(r:p1rdm4723-p1rdt2358lv) Units=km Length=0.0100589 bus1=p1rdt2358lv.1.2 bus2=p1rdm4723.1.2 switch=n enabled=y phases=2 Linecode=1P_OH_AL_2/0_Rucina_2

New Line.l(r:p1rdm4724-p1rlv4675) Units=km Length=0.0311909 bus1=p1rdm4724.1.2 bus2=p1rlv4675.1.2 switch=n enabled=y phases=2 Linecode=1P_OH_AL_4/0_Zuzara_2

New Line.l(r:p1rdm4724-p1rdt2359lv) Units=km Length=0.0127027 bus1=p1rdt2359lv.1.2 bus2=p1rdm4724.1.2 switch=n enabled=y phases=2 Linecode=1P_OH_AL_2/0_Rucina_2

New Line.l(r:p1rdm4725-p1rlv9453) Units=km Length=0.0291018 bus1=p1rdm4725.1.2 bus2=p1rlv9453.1.2 switch=n enabled=y phases=2 Linecode=1P_OH_AL_4/0_Zuzara_2

New Line.l(r:p1rdm4725-p1rdt2359lv) Units=km Length=0.012700700000000002 bus1=p1rdt2359lv.1.2 bus2=p1rdm4725.1.2 switch=n enabled=y phases=2 Linecode=1P_OH_AL_2/0_Rucina_2

New Line.l(r:p1rdt2360lv-p1rlv4676) Units=km Length=0.0137731 bus1=p1rdt2360lv.1.2 bus2=p1rlv4676.1.2 switch=n enabled=y phases=2 Linecode=1P_OH_AL_2/0_Rucina_2

New Line.l(r:p1rdt2361lv-p1rlv4678) Units=km Length=0.0293482 bus1=p1rdt2361lv.1.2 bus2=p1rlv4678.1.2 switch=n enabled=y phases=2 Linecode=1P_OH_AL_4/0_Zuzara_2

New Line.l(r:p1rdt2361lv-p1rlv4679) Units=km Length=0.00906427 bus1=p1rdt2361lv.1.2 bus2=p1rlv4679.1.2 switch=n enabled=y phases=2 Linecode=1P_OH_AL_2/0_Rucina_2

New Line.l(r:p1rdt2361lv-p1rlv4684) Units=km Length=0.024042 bus1=p1rdt2361lv.1.2 bus2=p1rlv4684.1.2 switch=n enabled=y phases=2 Linecode=1P_OH_AL_2/0_Rucina_2

New Line.l(r:p1rdm4727-p1rlv4677) Units=km Length=0.0158859 bus1=p1rdm4727.1.2 bus2=p1rlv4677.1.2 switch=n enabled=y phases=2 Linecode=1P_OH_AL_2/0_Rucina_2

New Line.l(r:p1rdm4727-p1rdt2361lv) Units=km Length=0.0797088 bus1=p1rdt2361lv.1.2 bus2=p1rdm4727.1.2 switch=n enabled=y phases=2 Linecode=1P_OH_AL_4/0_Zuzara_2

New Line.l(r:p1rdm4730-p1rlv4680) Units=km Length=0.0175663 bus1=p1rdm4730.1.2 bus2=p1rlv4680.1.2 switch=n enabled=y phases=2 Linecode=1P_OH_AL_2/0_Rucina_2

New Line.l(r:p1rdm4732-p1rlv9033) Units=km Length=0.0231281 bus1=p1rdm4732.1.2 bus2=p1rlv9033.1.2 switch=n enabled=y phases=2 Linecode=1P_OH_AL_2/0_Rucina_2

New Line.l(r:p1rdm4730-p1rdm4732) Units=km Length=0.0413941 bus1=p1rdm4730.1.2 bus2=p1rdm4732.1.2 switch=n enabled=y phases=2 Linecode=1P_OH_AL_4/0_Zuzara_2

New Line.l(r:p1rdm4730-p1rdt2361lv) Units=km Length=0.0181527 bus1=p1rdt2361lv.1.2 bus2=p1rdm4730.1.2 switch=n enabled=y phases=2 Linecode=1P_OH_AL_2/0_Rucina_2

New Line.l(r:p1rdm4733-p1rlv4681) Units=km Length=0.0194811 bus1=p1rdm4733.1.2 bus2=p1rlv4681.1.2 switch=n enabled=y phases=2 Linecode=1P_OH_AL_2/0_Rucina_2

New Line.l(r:p1rdm4736-p1rlv9029) Units=km Length=0.0315854 bus1=p1rdm4736.1.2 bus2=p1rlv9029.1.2 switch=n enabled=y phases=2 Linecode=1P_OH_AL_4/0_Zuzara_2

New Line.l(r:p1rdm4733-p1rdm4736) Units=km Length=0.0175055 bus1=p1rdm4733.1.2 bus2=p1rdm4736.1.2 switch=n enabled=y phases=2 Linecode=1P_OH_AL_2/0_Rucina_2

New Line.l(r:p1rdm4733-p1rdt2362lv) Units=km Length=0.013185200000000001 bus1=p1rdt2362lv.1.2 bus2=p1rdm4733.1.2 switch=n enabled=y phases=2 Linecode=1P_OH_AL_2/0_Rucina_2

New Line.l(r:p1rdm4734-p1rlv4682) Units=km Length=0.0259578 bus1=p1rdm4734.1.2 bus2=p1rlv4682.1.2 switch=n enabled=y phases=2 Linecode=1P_OH_AL_2/0_Rucina_2

New Line.l(r:p1rdm4735-p1rlv4683) Units=km Length=0.0204091 bus1=p1rdm4735.1.2 bus2=p1rlv4683.1.2 switch=n enabled=y phases=2 Linecode=1P_OH_AL_2/0_Rucina_2

New Line.l(r:p1rdm4734-p1rdm4735) Units=km Length=0.013689 bus1=p1rdm4734.1.2 bus2=p1rdm4735.1.2 switch=n enabled=y phases=2 Linecode=1P_OH_AL_2/0_Rucina_2

New Line.l(r:p1rdm4734-p1rdt2362lv) Units=km Length=0.0140303 bus1=p1rdt2362lv.1.2 bus2=p1rdm4734.1.2 switch=n enabled=y phases=2 Linecode=1P_OH_AL_2/0_Rucina_2

New Line.l(r:p1rdt2363lv-p1rlv4685) Units=km Length=0.020912 bus1=p1rdt2363lv.1.2 bus2=p1rlv4685.1.2 switch=n enabled=y phases=2 Linecode=1P_OH_AL_2/0_Rucina_2

New Line.l(r:p1rdt2363lv-p1rlv9452) Units=km Length=0.0129359 bus1=p1rdt2363lv.1.2 bus2=p1rlv9452.1.2 switch=n enabled=y phases=2 Linecode=1P_OH_AL_2/0_Rucina_2

New Line.l(r:p1rdm4863-p1rlv4816) Units=km Length=0.00986071 bus1=p1rdm4863.1.2 bus2=p1rlv4816.1.2 switch=n enabled=y phases=2 Linecode=1P_UG_AL_4/0_Sweetbriar_2

New Line.l(r:p1rdm4864-p1rlv4817) Units=km Length=0.00262711 bus1=p1rdm4864.1.2 bus2=p1rlv4817.1.2 switch=n enabled=y phases=2 Linecode=1P_UG_AL_2/0_Converse_2

New Line.l(r:p1rdm4863-p1rdm4864) Units=km Length=0.0169743 bus1=p1rdm4863.1.2 bus2=p1rdm4864.1.2 switch=n enabled=y phases=2 Linecode=1P_UG_AL_2/0_Converse_2

New Line.l(r:p1rdm4863-p1rdt2431lv) Units=km Length=0.0254779 bus1=p1rdt2431lv.1.2 bus2=p1rdm4863.1.2 switch=n enabled=y phases=2 Linecode=1P_UG_AL_4/0_Sweetbriar_2

New Line.l(r:p1rdm4865-p1rlv4819) Units=km Length=0.00533361 bus1=p1rdm4865.1.2 bus2=p1rlv4819.1.2 switch=n enabled=y phases=2 Linecode=1P_UG_AL_1/0_Brenau_2

New Line.l(r:p1rdm4865-p1rdt2431lv) Units=km Length=0.0810997 bus1=p1rdt2431lv.1.2 bus2=p1rdm4865.1.2 switch=n enabled=y phases=2 Linecode=1P_UG_AL_1/0_Brenau_2

New Line.l(r:p1rdt2433lv-p1rlv4820) Units=km Length=0.00965117 bus1=p1rdt2433lv.1.2 bus2=p1rlv4820.1.2 switch=n enabled=y phases=2 Linecode=1P_UG_AL_1/0_Brenau_2

New Line.l(r:p1rdt2435lv-p1rlv4822) Units=km Length=0.0561351 bus1=p1rdt2435lv.1.2 bus2=p1rlv4822.1.2 switch=n enabled=y phases=2 Linecode=1P_UG_AL_1/0_Brenau_2

New Line.l(r:p1rdt2435lv-p1rlv4828) Units=km Length=0.0902689 bus1=p1rdt2435lv.1.2 bus2=p1rlv4828.1.2 switch=n enabled=y phases=2 Linecode=1P_UG_AL_1/0_Brenau_2

New Line.l(r:p1rdt2437lv-p1rlv4824) Units=km Length=0.0470061 bus1=p1rdt2437lv.1.2 bus2=p1rlv4824.1.2 switch=n enabled=y phases=2 Linecode=1P_UG_AL_1/0_Brenau_2

New Line.l(r:p1rdt2437lv-p1rlv4825) Units=km Length=0.013165800000000002 bus1=p1rdt2437lv.1.2 bus2=p1rlv4825.1.2 switch=n enabled=y phases=2 Linecode=1P_UG_AL_1/0_Brenau_2

New Line.l(r:p1rdm4874-p1rlv4826) Units=km Length=0.0138436 bus1=p1rdm4874.1.2 bus2=p1rlv4826.1.2 switch=n enabled=y phases=2 Linecode=1P_UG_AL_1/0_Brenau_2

New Line.l(r:p1rdm4874-p1rdt2438lv) Units=km Length=0.0431952 bus1=p1rdt2438lv.1.2 bus2=p1rdm4874.1.2 switch=n enabled=y phases=2 Linecode=1P_UG_AL_1/0_Brenau_2

New Line.l(r:p1rdm4875-p1rlv4827) Units=km Length=0.00811281 bus1=p1rdm4875.1.2 bus2=p1rlv4827.1.2 switch=n enabled=y phases=2 Linecode=1P_UG_AL_1/0_Brenau_2

New Line.l(r:p1rdm4875-p1rdt2438lv) Units=km Length=0.0383105 bus1=p1rdt2438lv.1.2 bus2=p1rdm4875.1.2 switch=n enabled=y phases=2 Linecode=1P_UG_AL_1/0_Brenau_2

New Line.l(r:p1rdt2978lv-p1rlv5996) Units=km Length=0.0194959 bus1=p1rdt2978lv.1.2 bus2=p1rlv5996.1.2 switch=n enabled=y phases=2 Linecode=1P_OH_AL_2/0_Rucina_2

New Line.l(r:p1rdm6017-p1rlv5997) Units=km Length=0.0153153 bus1=p1rdm6017.1.2 bus2=p1rlv5997.1.2 switch=n enabled=y phases=2 Linecode=1P_OH_AL_2/0_Rucina_2
