
!*********Compile C:\Documents_NREL\Grid_Cost_DER\QSTS_python_final\HC_Green_SCE2\SmallScalePV\Master_noPV.dss
Clear
new loadshape.default npts=24 1.0 mult=(.677 .6256 .6087 .5833 .58028 .6025 .657 .7477 .832 .88 .94 .989 .985 .98 .9898 .999 1 .958 .936 .913 .876 .876 .828 .756)
new growthshape.default 2 year="1 20" mult=(1.025 1.025)
new spectrum.default 7  Harmonic=(1 3 5 7 9 11 13)  %mag=(100 33 20 14 11 9 7) Angle=(0 0 0 0 0 0 0)
new spectrum.defaultload 7  Harmonic=(1 3 5 7 9 11 13)  %mag=(100 1.5 20 14 1 9 7) Angle=(0 180 180 180 180 180 180)
new spectrum.defaultgen 7  Harmonic=(1 3 5 7 9 11 13)  %mag=(100 5 3 1.5 1 .7 .5) Angle=(0 0 0 0 0 0 0)
new spectrum.defaultvsource 1  Harmonic=(1 )  %mag=(100 ) Angle=(0 ) 
new spectrum.linear 1  Harmonic=(1 )  %mag=(100 ) Angle=(0 ) 
new spectrum.pwm6 13  Harmonic=(1 3 5 7 9 11 13 15 17 19 21 23 25) %mag=(100 4.4 76.5 62.7 2.9 24.8 12.7 0.5 7.1 8.4 0.9 4.4 3.3) Angle=(-103 -5 28 -180 -33 -59 79 36 -253 -124 3 -30 86)
new spectrum.dc6 10  Harmonic=(1 3 5 7 9 11 13 15 17 19)  %mag=(100 1.2 33.6 1.6 0.4 8.7  1.2  0.3  4.5 1.3) Angle=(-75 28 156 29 -91 49 54 148 -57 -46)
New TCC_Curve.A 5 c_array=(1, 2.5, 4.5, 8.0, 14.)  t_array=(0.15 0.07 .05 .045 .045) 
New TCC_Curve.D 5 c_array=(1, 2.5, 4.5, 8.0, 14.)  t_array=(6 0.7 .2 .06 .02)
New TCC_Curve.TLink 7 c_array=(2 2.1 3 4 6 22 50)  t_array=(300 100 10.1 4.0 1.4 0.1  0.02)
New TCC_Curve.KLink 6 c_array=(2 2.2 3 4 6 30)    t_array=(300 20 4 1.3 0.41 0.02)

!*********Redirect Substation.dss
New Circuit.GREEN_12KV basekv=12.00 bus1 = SourceBus pu=1.039 R1=0.00001 X1=0.00001 R0=0.00001 X0=0.00001
New object=vsource.source Bus1=SourceBus basekv=12.00 bus1 = SourceBus pu=1.039 R1=0.00001 X1=0.00001 R0=0.00001 X0=0.00001 
New Transformer.Sub phases=3 windings=2 buses=(SourceBus,07570) conns=(wye,wye) 
~ kvs=(12,12) kvas=(16000,16000) 
~ xhl=0.001 wdg=1 %r=0.001 wdg=2 %r=0.001
~ Maxtap=1.1 Mintap=0.9 enabled=True

!*********Redirect Wirecodes.dss
New wiredata.ACSR_1/0 GMRac=0.216408 rac=0.642498 runits=km GMRunits=cm normamps=280.000000 emergamps=355.000000
New wiredata.CU_1/0 GMRac=0.339547 rac=0.381336 runits=km GMRunits=cm normamps=311.000000 emergamps=311.000000
New wiredata.CU_#6 GMRac=0.160325 rac=1.501854 runits=km GMRunits=cm normamps=128.000000 emergamps=128.000000
New wiredata.CU_#2 GMRac=0.269138 rac=0.605837 runits=km GMRunits=cm normamps=265.000000 emergamps=355.000000
New wiredata.CU_2/0 GMRac=0.381305 rac=0.302359 runits=km GMRunits=cm normamps=405.000000 emergamps=550.000000
New wiredata.ACSR_336 GMRac=0.673608 rac=0.188089 runits=km GMRunits=cm normamps=605.000000 emergamps=800.000000
New wiredata.DEFAULT GMRac=0.883900 rac=0.121800 runits=km GMRunits=cm normamps=1000.000000 emergamps=1000.000000
New wiredata.ACSR_#4 GMRac=0.100584 rac=1.527952 runits=km GMRunits=cm normamps=160.000000 emergamps=205.000000

!*********Redirect Linespacingcodes.dss
New linespacing.STANDARD_2W_1N nconds=4 nphases=3 x=[0.000000,1.929384,0.000000,2.843784] h=[12.192000,12.192000,0.000000,12.192000] units=m
New linespacing.STANDARD_2W_1N_Ph1 nconds=2 nphases=1 x=[0.000000,2.843784] h=[12.192000,12.192000] units=m
New linespacing.STANDARD_2W_1N_Ph12 nconds=3 nphases=2 x=[0.000000,1.929384,2.843784] h=[12.192000,12.192000,12.192000] units=m
New linespacing.STANDARD_2W_1N_Ph2 nconds=2 nphases=1 x=[1.929384,2.843784] h=[12.192000,12.192000] units=m
New linespacing.STANDARD_2W_1N_Ph13 nconds=3 nphases=2 x=[0.000000,0.000000,2.843784] h=[12.192000,0.000000,12.192000] units=m
New linespacing.STANDARD_2W_1N_Ph23 nconds=3 nphases=2 x=[1.929384,0.000000,2.843784] h=[12.192000,0.000000,12.192000] units=m
New linespacing.STANDARD_2W_1N_Ph3 nconds=2 nphases=1 x=[0.000000,2.843784] h=[0.000000,12.192000] units=m
New linespacing.STANDARD_2W_1N_3W nconds=3 nphases=3 x=[0.000000,1.929384,0.000000] h=[12.192000,12.192000,0.000000] units=m
New linespacing.STANDARD_2W_1N_2W nconds=2 nphases=2 x=[0.000000,1.929384] h=[12.192000,12.192000] units=m
New linespacing.STANDARD_3W_1N nconds=4 nphases=3 x=[0.000000,1.929384,2.843784,0.914400] h=[12.192000,12.192000,12.192000,12.192000] units=m
New linespacing.STANDARD_3W_1N_Ph1 nconds=2 nphases=1 x=[0.000000,0.914400] h=[12.192000,12.192000] units=m
New linespacing.STANDARD_3W_1N_Ph12 nconds=3 nphases=2 x=[0.000000,1.929384,0.914400] h=[12.192000,12.192000,12.192000] units=m
New linespacing.STANDARD_3W_1N_Ph2 nconds=2 nphases=1 x=[1.929384,0.914400] h=[12.192000,12.192000] units=m
New linespacing.STANDARD_3W_1N_Ph13 nconds=3 nphases=2 x=[0.000000,2.843784,0.914400] h=[12.192000,12.192000,12.192000] units=m
New linespacing.STANDARD_3W_1N_Ph23 nconds=3 nphases=2 x=[1.929384,2.843784,0.914400] h=[12.192000,12.192000,12.192000] units=m
New linespacing.STANDARD_3W_1N_Ph3 nconds=2 nphases=1 x=[2.843784,0.914400] h=[12.192000,12.192000] units=m
New linespacing.STANDARD_3W_1N_3W nconds=3 nphases=3 x=[0.000000,1.929384,2.843784] h=[12.192000,12.192000,12.192000] units=m
New linespacing.STANDARD_3W_1N_2W nconds=2 nphases=2 x=[0.000000,1.929384] h=[12.192000,12.192000] units=m
New linespacing.STANDARD_3W nconds=4 nphases=3 x=[0.000000,1.929384,2.843784,0.000000] h=[12.192000,12.192000,12.192000,0.000000] units=m
New linespacing.STANDARD_3W_Ph1 nconds=2 nphases=1 x=[0.000000,0.000000] h=[12.192000,0.000000] units=m
New linespacing.STANDARD_3W_Ph12 nconds=3 nphases=2 x=[0.000000,1.929384,0.000000] h=[12.192000,12.192000,0.000000] units=m
New linespacing.STANDARD_3W_Ph2 nconds=2 nphases=1 x=[1.929384,0.000000] h=[12.192000,0.000000] units=m
New linespacing.STANDARD_3W_Ph13 nconds=3 nphases=2 x=[0.000000,2.843784,0.000000] h=[12.192000,12.192000,0.000000] units=m
New linespacing.STANDARD_3W_Ph23 nconds=3 nphases=2 x=[1.929384,2.843784,0.000000] h=[12.192000,12.192000,0.000000] units=m
New linespacing.STANDARD_3W_Ph3 nconds=2 nphases=1 x=[2.843784,0.000000] h=[12.192000,0.000000] units=m
New linespacing.STANDARD_3W_3W nconds=3 nphases=3 x=[0.000000,1.929384,2.843784] h=[12.192000,12.192000,12.192000] units=m
New linespacing.STANDARD_3W_2W nconds=2 nphases=2 x=[0.000000,1.929384] h=[12.192000,12.192000] units=m

!*********Redirect LineCodes.dss
New Linecode.OH-CU_3C_1/0 nphases=3 r1=0.348900 x1=0.469199 r0=0.526736 x0=1.873319 c1=9.4165 c0=4.0037 units=km baseFreq=60 normamps=311.000000 emergamps=311.000000
New Linecode.OH-CU_3C_#2 nphases=3 r1=0.554325 x1=0.486720 r0=0.732161 x0=1.890840 c1=9.0606 c0=3.938 units=km baseFreq=60 normamps=265.000000 emergamps=355.000000
New Linecode.OH-ACSR_3C_336 nphases=3 r1=0.171250 x1=0.417548 r0=0.349086 x0=1.821668 c1=10.5198 c0=4.1906 units=km baseFreq=60 normamps=605.000000 emergamps=800.000000
New Linecode.OH-ACSR_3C_#4 nphases=3 r1=1.349618 x1=0.560930 r0=1.527454 x0=1.965050 c1=8.8359 c0=3.8949 units=km baseFreq=60 normamps=160.000000 emergamps=205.000000
New Linecode.OH-ACSR_3C_1/0 nphases=3 r1=0.533758 x1=0.503162 r0=0.711594 x0=1.907282 c1=9.5415 c0=4.0261 units=km baseFreq=60 normamps=380.000000 emergamps=355.000000
New Linecode.OH-CU_3C_#6 nphases=3 r1=1.374100 x1=0.525778 r0=1.551936 x0=1.929898 c1=8.2655 c0=3.7799 units=km baseFreq=60 normamps=140.000000 emergamps=140.000000
New Linecode.OH-CU_3C_2/0 nphases=3 r1=0.276759 x1=0.460453 r0=0.454595 x0=1.864573 c1=9.6053 c0=4.0375 units=km baseFreq=60 normamps=405.000000 emergamps=550.000000
New Linecode.UG-JCN_3C_1000_5/12/16KV nphases=3 r1=0.097112 x1=0.117959 r0=0.517216 x0=0.147770 c1=308.5739 c0=308.5739 units=km baseFreq=60 normamps=473.000000 emergamps=587.000000
New Linecode.UG-CLP_2C_1/0_5/12/16KV nphases=3 r1=0.555446 x1=0.154881 r0=1.590399 x0=0.655105 c1=156.9722 c0=156.9722 units=km baseFreq=60 normamps=141.000000 emergamps=172.000000
New Linecode.UG-CLP_3C_1/0_5/12/16KV nphases=3 r1=0.704837 x1=0.154732 r0=1.637391 x0=0.556212 c1=156.9722 c0=156.9722 units=km baseFreq=60 normamps=141.000000 emergamps=172.000000
New Linecode.UG-DEFAULT nphases=3 r1=0.088235 x1=0.090720 r0=0.172120 x0=0.044739 c1=185.6642 c0=185.6642 units=km baseFreq=60 normamps=112.000000 emergamps=1.000000
New Linecode.UG-CLP_2C_#2_5/12/16KV nphases=3 r1=0.877407 x1=0.170416 r0=1.860757 x0=0.582647 c1=134.1284 c0=134.1284 units=km baseFreq=60 normamps=112.000000 emergamps=133.000000
New Linecode.UG-CLP_3C_#2_5/12/16KV nphases=3 r1=1.109649 x1=0.171047 r0=1.984778 x0=0.500578 c1=134.1284 c0=134.1284 units=km baseFreq=60 normamps=112.000000 emergamps=133.000000
New Linecode.UG-BUS nphases=3 r1=0.000621 x1=0.000621 r0=0.000621 x0=0.000621 c1=0 c0=0 units=km baseFreq=60 normamps=600.000000 emergamps=600.000000
New Linecode.UG-JCN_3C_#2_5/12/16KV nphases=3 r1=1.110395 x1=0.178224 r0=1.982897 x0=0.501867 c1=134.1284 c0=134.1284 units=km baseFreq=60 normamps=112.000000 emergamps=133.000000

!*********Redirect Lines.dss
New Line.UG_BS4839-1_07570$ND30594076_07570 bus1=BS4839-1_07570.1.2.3 bus2=ND30594076_07570.1.2.3 length=86.258397 units=m linecode=UG-CLP_3C_1/0_5/12/16KV phases=3 enabled=True
New Line.OH_451201E_07570$4699730E_07570 bus1=451201E_07570.1.2.3 bus2=4699730E_07570.1.2.3 length=533.704783 units=m linecode=OH-CU_3C_#6 phases=3 enabled=True
New Line.OH_1813457E_07570$2024846E_07570 bus1=1813457E_07570.1.2.3 bus2=2024846E_07570.1.2.3 length=27.431999 units=m linecode=OH-ACSR_3C_#4 phases=3 enabled=True
New Line.UG_4416894E_07570$P5618240-1_07570 bus1=4416894E_07570.1.2.3 bus2=P5618240-1_07570.1.2.3 length=90.220797 units=m linecode=UG-CLP_3C_#2_5/12/16KV phases=3 enabled=True
New Line.OH_ND30593618_07570$4362821E_07570 bus1=ND30593618_07570.1.2.3 bus2=4362821E_07570.1.2.3 length=97.231197 units=m linecode=OH-ACSR_3C_#4 phases=3 enabled=True
New Line.OH_1123341E_07570$ND30593049_07570 bus1=1123341E_07570.1.2.3 bus2=ND30593049_07570.1.2.3 length=84.734397 units=m linecode=OH-CU_3C_#6 phases=3 enabled=True
New Line.UG_138566718_07570$PDRAR3129-D_0757 bus1=138566718_07570.1.2.3 bus2=PDRAR3129-D_07570_1.1.2.3 length=7.620000 units=m linecode=UG-BUS phases=3 enabled=True
New Line.OH_ND31712439_07570$1851663E_07570 bus1=ND31712439_07570.1.2.3 bus2=1851663E_07570.1.2.3 length=104.241597 units=m linecode=OH-ACSR_3C_336 phases=3 enabled=True
New Line.OH_1406796E_07570$4130912E_07570 bus1=1406796E_07570.1.2.3 bus2=4130912E_07570.1.2.3 length=22.859999 units=m linecode=OH-ACSR_3C_#4 phases=3 enabled=True
New Line.UG_2270078EP1_07570_1$140212299_075 bus1=2270078EP1_07570_1.1.2.3 bus2=140212299_07570_1.1.2.3 length=385.876788 units=m linecode=UG-JCN_3C_#2_5/12/16KV phases=3 enabled=True
New Line.OH_ND30616331_07570$396520E_07570 bus1=ND30616331_07570.1.2.3 bus2=396520E_07570.1.2.3 length=12.496800 units=m linecode=OH-CU_3C_#6 phases=3 enabled=True
New Line.OH_ND31713092_07570$1813486E_07570 bus1=ND31713092_07570.1.2.3 bus2=1813486E_07570.1.2.3 length=452.323186 units=m linecode=OH-ACSR_3C_336 phases=3 enabled=True
New Line.OH_ND102936343_07570$4368667E_07570 bus1=ND102936343_07570.1.2.3 bus2=4368667E_07570.1.2.3 length=59.740798 units=m linecode=OH-ACSR_3C_336 phases=3 enabled=True
New Line.UG_4130804E_07570_1$P5393567-1_0757 bus1=4130804E_07570_1.1.2.3 bus2=P5393567-1_07570.1.2.3 length=55.473598 units=m linecode=UG-CLP_3C_#2_5/12/16KV phases=3 enabled=True
New Line.OH_396528E_07570$4780491E_07570 bus1=396528E_07570.1.2.3 bus2=4780491E_07570.1.2.3 length=57.911998 units=m linecode=OH-ACSR_3C_336 phases=3 enabled=True
New Line.UG_ND30617383_07570$P5504304-1_0757 bus1=ND30617383_07570.1.2.3 bus2=P5504304-1_07570.1.2.3 length=353.872789 units=m linecode=UG-CLP_3C_#2_5/12/16KV phases=3 enabled=True
New Line.OH_4540498E_07570$4354829E_07570_1 bus1=4540498E_07570.1.2.3 bus2=4354829E_07570_1.1.2.3 length=36.575999 units=m linecode=OH-ACSR_3C_336 phases=3 enabled=True
New Line.OH_4210436E_07570$ND30594524_07570 bus1=4210436E_07570.1.2.3 bus2=ND30594524_07570.1.2.3 length=10.363200 units=m linecode=OH-ACSR_3C_336 phases=3 enabled=True
New Line.OH_ND31715376_07570$138566718_07570 bus1=ND31715376_07570.1.2.3 bus2=138566718_07570.1.2.3 length=104.851197 units=m linecode=OH-ACSR_3C_336 phases=3 enabled=True
New Line.OH_4363394E_07570$4540963E_07570 bus1=4363394E_07570.1.2.3 bus2=4540963E_07570.1.2.3 length=65.531998 units=m linecode=OH-CU_3C_1/0 phases=3 enabled=True
New Line.OH_ND31715376_07570$PS0079_07570 bus1=ND31715376_07570.1.2.3 bus2=PS0079_07570.1.2.3 length=459.638385 units=m linecode=OH-ACSR_3C_336 phases=3 enabled=True
New Line.OH_451697ET1_07570$BF10048_07570 bus1=451697ET1_07570.1.2.3 bus2=BF10048_07570.1.2.3 length=31.699199 units=m linecode=OH-CU_3C_#6 phases=3 enabled=True
New Line.OH_BF10048_07570_1$ND30594455_07570 bus1=BF10048_07570_1.1.2.3 bus2=ND30594455_07570.1.2.3 length=103.631997 units=m linecode=OH-CU_3C_#6 phases=3 enabled=True
New Line.OH_ND30616291_07570$4099194E_07570 bus1=ND30616291_07570.1.2.3 bus2=4099194E_07570.1.2.3 length=323.392790 units=m linecode=OH-ACSR_3C_336 phases=3 enabled=True
New Line.UG_RAR3129_07570$PDRAR3129-B_07570 bus1=RAR3129_07570.1.2.3 bus2=PDRAR3129-B_07570.1.2.3 length=10.363200 units=m linecode=UG-BUS phases=3 enabled=True
New Line.OH_392069E_07570$BF10041_07570 bus1=392069E_07570.1.2.3 bus2=BF10041_07570.1.2.3 length=1.828800 units=m linecode=OH-CU_3C_#6 phases=3 enabled=True
New Line.OH_4368663E_07570$1406609E_07570 bus1=4368663E_07570.1.2.3 bus2=1406609E_07570.1.2.3 length=52.120798 units=m linecode=OH-CU_3C_#6 phases=3 enabled=True
New Line.OH_1340496E_07570$4276440E_07570 bus1=1340496E_07570.1.2.3 bus2=4276440E_07570.1.2.3 length=89.001597 units=m linecode=OH-CU_3C_#6 phases=3 enabled=True
New Line.OH_ND30594455_07570$4067585E_07570 bus1=ND30594455_07570.1.2.3 bus2=4067585E_07570.1.2.3 length=67.055998 units=m linecode=OH-CU_3C_#2 phases=3 enabled=True
New Line.OH_703684E_07570$4700793E_07570 bus1=703684E_07570.1.2.3 bus2=4700793E_07570.1.2.3 length=73.151998 units=m linecode=OH-ACSR_3C_#4 phases=3 enabled=True
New Line.OH_ND30616984_07570$1807630E_07570 bus1=ND30616984_07570.1.2.3 bus2=1807630E_07570.1.2.3 length=114.299996 units=m linecode=OH-ACSR_3C_336 phases=3 enabled=True
New Line.OH_ND30593814_07570$4362829E_07570 bus1=ND30593814_07570.1.2.3 bus2=4362829E_07570.1.2.3 length=46.939198 units=m linecode=OH-CU_3C_#6 phases=3 enabled=True
New Line.OH_4354805E_07570$4099100E_07570 bus1=4354805E_07570.1.2.3 bus2=4099100E_07570.1.2.3 length=82.905597 units=m linecode=OH-CU_3C_1/0 phases=3 enabled=True
New Line.OH_4552976E_07570$2024837E_07570 bus1=4552976E_07570.1.2.3 bus2=2024837E_07570.1.2.3 length=107.594397 units=m linecode=OH-ACSR_3C_#4 phases=3 enabled=True
New Line.OH_ND30594611_07570$392078E_07570 bus1=ND30594611_07570.1.2.3 bus2=392078E_07570.1.2.3 length=244.754392 units=m linecode=OH-ACSR_3C_#4 phases=3 enabled=True
New Line.OH_ND31713291_07570$ND31713292_0757 bus1=ND31713291_07570.1.2.3 bus2=ND31713292_07570.1.2.3 length=611.123980 units=m linecode=OH-ACSR_3C_336 phases=3 enabled=True
New Line.OH_ND30593215_07570$PS1361_07570 bus1=ND30593215_07570.1.2.3 bus2=PS1361_07570.1.2.3 length=104.241597 units=m linecode=OH-ACSR_3C_336 phases=3 enabled=True
New Line.OH_4226919ET_07570$4695030E_07570 bus1=4226919ET_07570.1.2.3 bus2=4695030E_07570.1.2.3 length=68.275198 units=m linecode=OH-ACSR_3C_#4 phases=3 enabled=True
New Line.OH_ND30593791_07570$PS0218_07570_1 bus1=ND30593791_07570.1.2.3 bus2=PS0218_07570_1.1.2.3 length=250.545592 units=m linecode=OH-CU_3C_#6 phases=3 enabled=True
New Line.OH_2229829E_07570$4097786E_07570 bus1=2229829E_07570.1.2.3 bus2=4097786E_07570.1.2.3 length=264.261592 units=m linecode=OH-ACSR_3C_#4 phases=3 enabled=True
New Line.OH_1813481E_07570$4477596EP_07570 bus1=1813481E_07570.1.2.3 bus2=4477596EP_07570.1.2.3 length=153.009595 units=m linecode=OH-ACSR_3C_#4 phases=3 enabled=True
New Line.OH_4368659E_07570$PS3196_07570 bus1=4368659E_07570.1.2.3 bus2=PS3196_07570.1.2.3 length=113.080796 units=m linecode=OH-ACSR_3C_336 phases=3 enabled=True
New Line.OH_ND30593229_07570$4214689E_07570 bus1=ND30593229_07570.1.2.3 bus2=4214689E_07570.1.2.3 length=146.913595 units=m linecode=OH-CU_3C_#6 phases=3 enabled=True
New Line.UG_ND30593632_07570$30591990_07570_ bus1=ND30593632_07570.1.2.3 bus2=30591990_07570_1.1.2.3 length=126.796796 units=m linecode=UG-CLP_3C_1/0_5/12/16KV phases=3 enabled=True
New Line.OH_ND30594713_07570$4368670E_07570 bus1=ND30594713_07570.1.2.3 bus2=4368670E_07570.1.2.3 length=342.595189 units=m linecode=OH-ACSR_3C_336 phases=3 enabled=True
New Line.OH_837903E_07570$4340701E_07570 bus1=837903E_07570.1.2.3 bus2=4340701E_07570.1.2.3 length=31.089599 units=m linecode=OH-ACSR_3C_336 phases=3 enabled=True
New Line.OH_BF10806_07570_1$4699736E_07570 bus1=BF10806_07570_1.1.2.3 bus2=4699736E_07570.1.2.3 length=114.604796 units=m linecode=OH-ACSR_3C_#4 phases=3 enabled=True
New Line.OH_ND30594596_07570$4002234E_07570 bus1=ND30594596_07570.1.2.3 bus2=4002234E_07570.1.2.3 length=72.542398 units=m linecode=OH-CU_3C_#2 phases=3 enabled=True
New Line.OH_PS0159_07570$4167349E_07570 bus1=PS0159_07570.1.2.3 bus2=4167349E_07570.1.2.3 length=640.384780 units=m linecode=OH-ACSR_3C_336 phases=3 enabled=True
New Line.OH_4632241E_07570$ND30592923_07570 bus1=4632241E_07570.1.2.3 bus2=ND30592923_07570.1.2.3 length=93.878397 units=m linecode=OH-ACSR_3C_#4 phases=3 enabled=True
New Line.OH_ND31712560_07570$RCS2423_07570 bus1=ND31712560_07570.1.2.3 bus2=RCS2423_07570.1.2.3 length=146.303995 units=m linecode=OH-ACSR_3C_336 phases=3 enabled=True
New Line.OH_808076E_07570$ND31715376_07570 bus1=808076E_07570.1.2.3 bus2=ND31715376_07570.1.2.3 length=64.007998 units=m linecode=OH-ACSR_3C_336 phases=3 enabled=True
New Line.OH_ND31712919_07570$4699973E_07570 bus1=ND31712919_07570.1.2.3 bus2=4699973E_07570.1.2.3 length=528.827983 units=m linecode=OH-CU_3C_#6 phases=3 enabled=True
New Line.OH_ND31713044_07570$4354639E_07570 bus1=ND31713044_07570.1.2.3 bus2=4354639E_07570.1.2.3 length=39.623999 units=m linecode=OH-CU_3C_#6 phases=3 enabled=True
New Line.OH_1813456E_07570$ND31712560_07570 bus1=1813456E_07570.1.2.3 bus2=ND31712560_07570.1.2.3 length=198.729594 units=m linecode=OH-ACSR_3C_336 phases=3 enabled=True
New Line.UG_ND30594076_07570$B5372741-1_0757 bus1=ND30594076_07570.1.2.3 bus2=B5372741-1_07570.1.2.3 length=113.690396 units=m linecode=UG-CLP_3C_1/0_5/12/16KV phases=3 enabled=True
New Line.OH_410193E_07570$BF10038_07570 bus1=410193E_07570.1.2.3 bus2=BF10038_07570.1.2.3 length=33.223199 units=m linecode=OH-CU_3C_#6 phases=3 enabled=True
New Line.OH_ND31714829_07570$4289368E_07570 bus1=ND31714829_07570.1.2.3 bus2=4289368E_07570.1.2.3 length=58.216798 units=m linecode=OH-CU_3C_#6 phases=3 enabled=True
New Line.OH_1299702E_07570$4669184E_07570 bus1=1299702E_07570.1.2.3 bus2=4669184E_07570.1.2.3 length=89.001597 units=m linecode=OH-ACSR_3C_#4 phases=3 enabled=True
New Line.UG_4075856E_07570_1$BS4839-1_07570_ bus1=4075856E_07570_1.1.2.3 bus2=BS4839-1_07570_1.1.2.3 length=104.851197 units=m linecode=UG-CLP_3C_1/0_5/12/16KV phases=3 enabled=True
New Line.OH_4772513E_07570$2286962E_07570 bus1=4772513E_07570.1.2.3 bus2=2286962E_07570.1.2.3 length=117.957596 units=m linecode=OH-ACSR_3C_336 phases=3 enabled=True
New Line.OH_X15001E_07570$ND30593880_07570 bus1=X15001E_07570.1.2.3 bus2=ND30593880_07570.1.2.3 length=106.070397 units=m linecode=OH-ACSR_3C_1/0 phases=3 enabled=True
New Line.OH_ND31714460_07570$ND31714474_0757 bus1=ND31714460_07570.1.2.3 bus2=ND31714474_07570.1.2.3 length=62.483998 units=m linecode=OH-CU_3C_#2 phases=3 enabled=True
New Line.OH_4696734E_07570$ND30593769_07570 bus1=4696734E_07570.1.2.3 bus2=ND30593769_07570.1.2.3 length=15.849599 units=m linecode=OH-ACSR_3C_#4 phases=3 enabled=True
New Line.OH_ND30616251_07570$ND30593314_0757 bus1=ND30616251_07570.1.2.3 bus2=ND30593314_07570.1.2.3 length=10.058400 units=m linecode=OH-CU_3C_#6 phases=3 enabled=True
New Line.OH_ND31712241_07570$ND31713986_0757 bus1=ND31712241_07570.1.2.3 bus2=ND31713986_07570.1.2.3 length=113.995196 units=m linecode=OH-CU_3C_1/0 phases=3 enabled=True
New Line.OH_4180602E_07570$1982285E_07570 bus1=4180602E_07570.1.2.3 bus2=1982285E_07570.1.2.3 length=373.989588 units=m linecode=OH-CU_3C_#6 phases=3 enabled=True
New Line.OH_1636824E_07570$1636825E_07570 bus1=1636824E_07570.1.2.3 bus2=1636825E_07570.1.2.3 length=40.843199 units=m linecode=OH-ACSR_3C_#4 phases=3 enabled=True
New Line.OH_4699973E_07570$ND31712419_07570 bus1=4699973E_07570.1.2.3 bus2=ND31712419_07570.1.2.3 length=420.319187 units=m linecode=OH-CU_3C_#6 phases=3 enabled=True
New Line.OH_ND30593449_07570$4122963E_07570_ bus1=ND30593449_07570.1.2.3 bus2=4122963E_07570_1.1.2.3 length=4.267200 units=m linecode=OH-CU_3C_#6 phases=3 enabled=True
New Line.OH_591841E_07570$ND31712846_07570 bus1=591841E_07570.1.2.3 bus2=ND31712846_07570.1.2.3 length=415.442387 units=m linecode=OH-ACSR_3C_336 phases=3 enabled=True
New Line.OH_ND30593483_07570$ND30616427_0757 bus1=ND30593483_07570.1.2.3 bus2=ND30616427_07570.1.2.3 length=331.012789 units=m linecode=OH-ACSR_3C_336 phases=3 enabled=True
New Line.OH_ND30593769_07570$ND30593770_0757 bus1=ND30593769_07570.1.2.3 bus2=ND30593770_07570.1.2.3 length=240.791992 units=m linecode=OH-ACSR_3C_#4 phases=3 enabled=True
New Line.OH_4659047E_07570$1763673E_07570 bus1=4659047E_07570.1.2.3 bus2=1763673E_07570.1.2.3 length=64.007998 units=m linecode=OH-ACSR_3C_336 phases=3 enabled=True
New Line.OH_ND30594054_07570$X15001E_07570 bus1=ND30594054_07570.1.2.3 bus2=X15001E_07570.1.2.3 length=161.239195 units=m linecode=OH-ACSR_3C_1/0 phases=3 enabled=True
New Line.OH_4669184E_07570$1982110E_07570 bus1=4669184E_07570.1.2.3 bus2=1982110E_07570.1.2.3 length=204.520793 units=m linecode=OH-ACSR_3C_#4 phases=3 enabled=True
New Line.OH_ND31712439_07570$4772512E_07570 bus1=ND31712439_07570.1.2.3 bus2=4772512E_07570.1.2.3 length=456.285585 units=m linecode=OH-ACSR_3C_336 phases=3 enabled=True
New Line.OH_1943316E_07570$808076E_07570 bus1=1943316E_07570.1.2.3 bus2=808076E_07570.1.2.3 length=53.339998 units=m linecode=OH-ACSR_3C_336 phases=3 enabled=True
New Line.OH_1406528E_07570$4368380E_07570 bus1=1406528E_07570.1.2.3 bus2=4368380E_07570.1.2.3 length=59.435998 units=m linecode=OH-ACSR_3C_#4 phases=3 enabled=True
New Line.OH_BF10344_07570$ND31714828_07570 bus1=BF10344_07570.1.2.3 bus2=ND31714828_07570.1.2.3 length=14.935200 units=m linecode=OH-CU_3C_#6 phases=3 enabled=True
New Line.OH_1475350E_07570$ND30594295_07570 bus1=1475350E_07570.1.2.3 bus2=ND30594295_07570.1.2.3 length=17.678399 units=m linecode=OH-ACSR_3C_1/0 phases=3 enabled=True
New Line.OH_ND31715376_07570$PS1357_07570 bus1=ND31715376_07570.1.2.3 bus2=PS1357_07570.1.2.3 length=53.644798 units=m linecode=OH-ACSR_3C_336 phases=3 enabled=True
New Line.OH_BF10043_07570$1340496E_07570 bus1=BF10043_07570.1.2.3 bus2=1340496E_07570.1.2.3 length=21.335999 units=m linecode=OH-ACSR_3C_336 phases=3 enabled=True
New Line.OH_4167349E_07570$2272786E_07570 bus1=4167349E_07570.1.2.3 bus2=2272786E_07570.1.2.3 length=114.604796 units=m linecode=OH-ACSR_3C_336 phases=3 enabled=True
New Line.UG_4416893E_07570$ND30617383_07570 bus1=4416893E_07570.1.2.3 bus2=ND30617383_07570.1.2.3 length=185.927994 units=m linecode=UG-CLP_3C_#2_5/12/16KV phases=3 enabled=True
New Line.OH_409265E_07570$546390E_07570 bus1=409265E_07570.1.2.3 bus2=546390E_07570.1.2.3 length=487.375184 units=m linecode=OH-CU_3C_#6 phases=3 enabled=True
New Line.OH_4067585E_07570$4075713E_07570 bus1=4067585E_07570.1.2.3 bus2=4075713E_07570.1.2.3 length=352.043989 units=m linecode=OH-CU_3C_#2 phases=3 enabled=True
New Line.OH_4368160E_07570$4026373E_07570 bus1=4368160E_07570.1.2.3 bus2=4026373E_07570.1.2.3 length=199.948794 units=m linecode=OH-CU_3C_#6 phases=3 enabled=True
New Line.UG_ND30593998_07570$30592000_07570 bus1=ND30593998_07570.1.2.3 bus2=30592000_07570.1.2.3 length=94.183197 units=m linecode=UG-CLP_3C_1/0_5/12/16KV phases=3 enabled=True
New Line.OH_4093TT1_07570_1$4363729E_07570 bus1=4093TT1_07570_1.1.2.3 bus2=4363729E_07570.1.2.3 length=126.491996 units=m linecode=OH-ACSR_3C_#4 phases=3 enabled=True
New Line.UG_4167122E_07570$ND30593301_07570 bus1=4167122E_07570.1.2.3 bus2=ND30593301_07570.1.2.3 length=179.527194 units=m linecode=UG-CLP_3C_1/0_5/12/16KV phases=3 enabled=True
New Line.OH_4684857E_07570$PS0159_07570_1 bus1=4684857E_07570.1.2.3 bus2=PS0159_07570_1.1.2.3 length=3.657600 units=m linecode=OH-ACSR_3C_336 phases=3 enabled=True
New Line.OH_ND30592923_07570$1636824E_07570 bus1=ND30592923_07570.1.2.3 bus2=1636824E_07570.1.2.3 length=88.391997 units=m linecode=OH-ACSR_3C_#4 phases=3 enabled=True
New Line.OH_4695030E_07570$4274192E_07570 bus1=4695030E_07570.1.2.3 bus2=4274192E_07570.1.2.3 length=77.723998 units=m linecode=OH-ACSR_3C_#4 phases=3 enabled=True
New Line.OH_4700793E_07570$4632239E_07570 bus1=4700793E_07570.1.2.3 bus2=4632239E_07570.1.2.3 length=316.382390 units=m linecode=OH-ACSR_3C_#4 phases=3 enabled=True
New Line.OH_ND30593200_07570$BF10809_07570_1 bus1=ND30593200_07570.1.2.3 bus2=BF10809_07570_1.1.2.3 length=23.469599 units=m linecode=OH-ACSR_3C_1/0 phases=3 enabled=True
New Line.OH_ND30593472_07570$4368663E_07570 bus1=ND30593472_07570.1.2.3 bus2=4368663E_07570.1.2.3 length=88.391997 units=m linecode=OH-CU_3C_#6 phases=3 enabled=True
New Line.OH_ND30593770_07570$2212593E_07570 bus1=ND30593770_07570.1.2.3 bus2=2212593E_07570.1.2.3 length=268.833591 units=m linecode=OH-ACSR_3C_#4 phases=3 enabled=True
New Line.OH_1982110E_07570$1982290E_07570 bus1=1982110E_07570.1.2.3 bus2=1982290E_07570.1.2.3 length=103.327197 units=m linecode=OH-ACSR_3C_#4 phases=3 enabled=True
New Line.OH_ND30594618_07570$PS1364_07570_1 bus1=ND30594618_07570.1.2.3 bus2=PS1364_07570_1.1.2.3 length=160.324795 units=m linecode=OH-CU_3C_#6 phases=3 enabled=True
New Line.OH_4026131E_07570$1223308E_07570 bus1=4026131E_07570.1.2.3 bus2=1223308E_07570.1.2.3 length=33.832799 units=m linecode=OH-CU_3C_#6 phases=3 enabled=True
New Line.OH_ND30593049_07570$ND30593472_0757 bus1=ND30593049_07570.1.2.3 bus2=ND30593472_07570.1.2.3 length=188.366394 units=m linecode=OH-CU_3C_#6 phases=3 enabled=True
New Line.OH_601429E_07570_1$4552982E_07570 bus1=601429E_07570_1.1.2.3 bus2=4552982E_07570.1.2.3 length=28.955999 units=m linecode=OH-ACSR_3C_#4 phases=3 enabled=True
New Line.OH_4693T_07570$ND31712369_07570 bus1=4693T_07570.1.2.3 bus2=ND31712369_07570.1.2.3 length=45.719999 units=m linecode=OH-ACSR_3C_336 phases=3 enabled=True
New Line.OH_2286962E_07570$ND30616291_07570 bus1=2286962E_07570.1.2.3 bus2=ND30616291_07570.1.2.3 length=105.460797 units=m linecode=OH-ACSR_3C_336 phases=3 enabled=True
New Line.OH_1123342E_07570$ND30593449_07570 bus1=1123342E_07570.1.2.3 bus2=ND30593449_07570.1.2.3 length=263.956792 units=m linecode=OH-CU_3C_#6 phases=3 enabled=True
New Line.UG_4122963E_07570$ND30594420_07570 bus1=4122963E_07570.1.2.3 bus2=ND30594420_07570.1.2.3 length=59.740798 units=m linecode=UG-CLP_3C_#2_5/12/16KV phases=3 enabled=True
New Line.OH_396520E_07570_1$4099096E_07570 bus1=396520E_07570_1.1.2.3 bus2=4099096E_07570.1.2.3 length=96.926397 units=m linecode=OH-CU_3C_#6 phases=3 enabled=True
New Line.OH_ND30593482_07570$ND30593483_0757 bus1=ND30593482_07570.1.2.3 bus2=ND30593483_07570.1.2.3 length=318.211190 units=m linecode=OH-ACSR_3C_336 phases=3 enabled=True
New Line.OH_ND31712919_07570$ND150429465_075 bus1=ND31712919_07570.1.2.3 bus2=ND150429465_07570.1.2.3 length=44.500799 units=m linecode=OH-ACSR_3C_336 phases=3 enabled=True
New Line.OH_1475768E_07570$BF10047_07570 bus1=1475768E_07570.1.2.3 bus2=BF10047_07570.1.2.3 length=9.448800 units=m linecode=OH-ACSR_3C_1/0 phases=3 enabled=True
New Line.OH_ND30593617_07570$4632244E_07570 bus1=ND30593617_07570.1.2.3 bus2=4632244E_07570.1.2.3 length=42.976799 units=m linecode=OH-ACSR_3C_#4 phases=3 enabled=True
New Line.OH_PS1357_07570_1$ND31696671_07570 bus1=PS1357_07570_1.1.2.3 bus2=ND31696671_07570.1.2.3 length=174.040794 units=m linecode=OH-ACSR_3C_336 phases=3 enabled=True
New Line.OH_4553240E_07570$ND31712439_07570 bus1=4553240E_07570.1.2.3 bus2=ND31712439_07570.1.2.3 length=55.778398 units=m linecode=OH-ACSR_3C_336 phases=3 enabled=True
New Line.OH_4661656E_07570$1406528E_07570 bus1=4661656E_07570.1.2.3 bus2=1406528E_07570.1.2.3 length=131.673596 units=m linecode=OH-ACSR_3C_#4 phases=3 enabled=True
New Line.OH_ND31712419_07570$2163006E_07570 bus1=ND31712419_07570.1.2.3 bus2=2163006E_07570.1.2.3 length=61.569598 units=m linecode=OH-CU_3C_1/0 phases=3 enabled=True
New Line.OH_BF10829_07570_1$4368661E_07570 bus1=BF10829_07570_1.1.2.3 bus2=4368661E_07570.1.2.3 length=13.411200 units=m linecode=OH-ACSR_3C_#4 phases=3 enabled=True
New Line.OH_2197942E_07570$4276446E_07570 bus1=2197942E_07570.1.2.3 bus2=4276446E_07570.1.2.3 length=86.563197 units=m linecode=OH-CU_3C_#6 phases=3 enabled=True
New Line.OH_4659046E_07570$4693T_07570 bus1=4659046E_07570.1.2.3 bus2=4693T_07570.1.2.3 length=128.930396 units=m linecode=OH-ACSR_3C_336 phases=3 enabled=True
New Line.OH_481736E_07570$2295944E_07570 bus1=481736E_07570.1.2.3 bus2=2295944E_07570.1.2.3 length=170.383195 units=m linecode=OH-CU_3C_#6 phases=3 enabled=True
New Line.OH_ND30594119_07570$4067277E_07570 bus1=ND30594119_07570.1.2.3 bus2=4067277E_07570.1.2.3 length=209.702393 units=m linecode=OH-ACSR_3C_#4 phases=3 enabled=True
New Line.OH_4552982E_07570$4661652E_07570 bus1=4552982E_07570.1.2.3 bus2=4661652E_07570.1.2.3 length=32.918399 units=m linecode=OH-ACSR_3C_#4 phases=3 enabled=True
New Line.OH_4553236E_07570$4659046E_07570 bus1=4553236E_07570.1.2.3 bus2=4659046E_07570.1.2.3 length=171.602395 units=m linecode=OH-ACSR_3C_336 phases=3 enabled=True
New Line.UG_1466999E_07570_1$P5403124-2_0757 bus1=1466999E_07570_1.1.2 bus2=P5403124-2_07570.1.2 length=299.923190 units=m linecode=UG-CLP_2C_1/0_5/12/16KV phases=2 enabled=True
New Line.OH_4026373E_07570$ND30616404_07570 bus1=4026373E_07570.1.2.3 bus2=ND30616404_07570.1.2.3 length=219.151193 units=m linecode=OH-CU_3C_#6 phases=3 enabled=True
New Line.OH_4699736E_07570$4364055E_07570 bus1=4699736E_07570.1.2.3 bus2=4364055E_07570.1.2.3 length=549.859182 units=m linecode=OH-ACSR_3C_#4 phases=3 enabled=True