New Load.4214689E-ABC-1 phases=3 bus=X_4214689E_T_07570.1.2.3 kV=0.48 kW = 11.581830326216 pf=0.66575478 status=variable mode=4 CVRwatts=0.8 CVRvars=3 class=1 numcust=0 yearly=LoadProfile !xfkVA=25
New Load.P5504308-C-1 phases=1 bus=X_P5504308_T_07570.3 kV=0.24 kW = 13.3163267099702 pf=0.66259869 status=variable mode=4 CVRwatts=0.8 CVRvars=3 class=1 numcust=0 yearly=LoadProfile !xfkVA=25
New Load.4671820E-ABC-1 phases=3 bus=X_4671820E_T_07570.1.2.3 kV=0.48 kW = 11.581830326216 pf=0.66575478 status=variable mode=4 CVRwatts=0.8 CVRvars=3 class=1 numcust=0 yearly=LoadProfile !xfkVA=25
New Load.4067277E-ABC-1 phases=3 bus=X_4067277E_T_07570.1.2.3 kV=0.48 kW = 34.7454916444027 pf=0.66575478 status=variable mode=4 CVRwatts=0.8 CVRvars=3 class=1 numcust=0 yearly=LoadProfile !xfkVA=75
!*** New Load.1434526E-ABC-1 phases=3 bus=X_1434526E_T_07570.1.2.3 kV=0.48 kW = 0 pf=0 status=variable mode=4 CVRwatts=0.8 CVRvars=3 class=1 numcust=0 yearly=LoadProfile !xfkVA=0
New Load.4553233E-ABC-1 phases=3 bus=X_4553233E_T_07570.1.2.3 kV=0.48 kW = 6.9490984620315 pf=0.66575478 status=variable mode=4 CVRwatts=0.8 CVRvars=3 class=1 numcust=0 yearly=LoadProfile !xfkVA=15
New Load.4130912E-ABC-1 phases=3 bus=X_4130912E_T_07570.1.2.3 kV=0.48 kW = 13.898196924063 pf=0.66575478 status=variable mode=4 CVRwatts=0.8 CVRvars=3 class=1 numcust=0 yearly=LoadProfile !xfkVA=30
New Load.4362834E-ABC-1 phases=3 bus=X_4362834E_T_07570.1.2.3 kV=0.48 kW = 34.7454916444027 pf=0.66575478 status=variable mode=4 CVRwatts=0.8 CVRvars=3 class=1 numcust=0 yearly=LoadProfile !xfkVA=75
New Load.4362828E-ABC-1 phases=3 bus=X_4362828E_T_07570.1.2.3 kV=0.48 kW = 11.581830326216 pf=0.66575478 status=variable mode=4 CVRwatts=0.8 CVRvars=3 class=1 numcust=0 yearly=LoadProfile !xfkVA=25
New Load.2331624E-ABC-1 phases=3 bus=X_2331624E_T_07570.1.2.3 kV=0.48 kW = 34.7454916444027 pf=0.66575478 status=variable mode=4 CVRwatts=0.8 CVRvars=3 class=1 numcust=0 yearly=LoadProfile !xfkVA=75
New Load.2212593E-ABC-1 phases=3 bus=X_2212593E_T_07570.1.2.3 kV=0.48 kW = 52.1182374666041 pf=0.66575478 status=variable mode=4 CVRwatts=0.8 CVRvars=3 class=1 numcust=0 yearly=LoadProfile !xfkVA=112
New Load.1507174E-ABC-1 phases=3 bus=X_1507174E_T_07570.1.2.3 kV=0.48 kW = 34.7454916444027 pf=0.66575478 status=variable mode=4 CVRwatts=0.8 CVRvars=3 class=1 numcust=0 yearly=LoadProfile !xfkVA=75
New Load.1475350E-ABC-1 phases=3 bus=X_1475350E_T_07570.1.2.3 kV=0.48 kW = 11.581830326216 pf=0.66575478 status=variable mode=4 CVRwatts=0.8 CVRvars=3 class=1 numcust=0 yearly=LoadProfile !xfkVA=25
New Load.4700177E-ABC-1 phases=3 bus=X_4700177E_T_07570.1.2.3 kV=0.48 kW = 52.1182374666041 pf=0.66575478 status=variable mode=4 CVRwatts=0.8 CVRvars=3 class=1 numcust=0 yearly=LoadProfile !xfkVA=112
New Load.4784743E-ABC-1 phases=3 bus=X_4784743E_T_07570.1.2.3 kV=0.48 kW = 57.9091522968347 pf=0.66575478 status=variable mode=4 CVRwatts=0.8 CVRvars=3 class=1 numcust=0 yearly=LoadProfile !xfkVA=125
New Load.2272786E-ABC-1 phases=3 bus=X_2272786E_T_07570.1.2.3 kV=0.48 kW = 9.26546439412374 pf=0.66575478 status=variable mode=4 CVRwatts=0.8 CVRvars=3 class=1 numcust=0 yearly=LoadProfile !xfkVA=20
New Load.4274192E-ABC-1 phases=3 bus=X_4274192E_T_07570.1.2.3 kV=0.48 kW = 34.7454916444027 pf=0.66575478 status=variable mode=4 CVRwatts=0.8 CVRvars=3 class=1 numcust=0 yearly=LoadProfile !xfkVA=75
New Load.1763996E-ABC-1 phases=3 bus=X_1763996E_T_07570.1.2.3 kV=0.48 kW = 9.26546439412374 pf=0.66575478 status=variable mode=4 CVRwatts=0.8 CVRvars=3 class=1 numcust=0 yearly=LoadProfile !xfkVA=20
New Load.850250E_07570$850250E_T_07570-1-A-1 phases=1 bus=X_850250E_T_07570.1 kV=0.24 kW = 7.11364416262175 pf=0.64040873 status=variable mode=4 CVRwatts=0.8 CVRvars=3 class=1 numcust=0 yearly=LoadProfile !xfkVA=15
New Load.850250E_07570$850250E_T_07570-1-A-2 phases=1 bus=X_850250E_T_07570.1 kV=0.24 kW = 5.28 pf=0.8 status=variable mode=4 CVRwatts=0.8 CVRvars=3 class=1 numcust=0 yearly=LoadProfile !xfkVA=15
!*** New Load.850250E_07570$850250E_T_07570-1-A-3 phases=1 bus=X_850250E_T_07570.1 kV=0.24 kW = 0 pf=0 status=variable mode=4 CVRwatts=0.8 CVRvars=3 class=1 numcust=0 yearly=LoadProfile !xfkVA=0
New Load.1763673E_07570$1763673E_T_0757-1-A-1 phases=1 bus=X_1763673E_T_07570.1 kV=0.24 kW = 2.37121450740434 pf=0.64040873 status=variable mode=4 CVRwatts=0.8 CVRvars=3 class=1 numcust=0 yearly=LoadProfile !xfkVA=5
New Load.1763673E_07570$1763673E_T_0757-1-B-1 phases=1 bus=X_1763673E_T_07570.2 kV=0.24 kW = 2.6922125155824 pf=0.74365992 status=variable mode=4 CVRwatts=0.8 CVRvars=3 class=1 numcust=0 yearly=LoadProfile !xfkVA=5
New Load.1763673E_07570$1763673E_T_0757-1-C-1 phases=1 bus=X_1763673E_T_07570.3 kV=0.24 kW = 2.66326507695456 pf=0.66259869 status=variable mode=4 CVRwatts=0.8 CVRvars=3 class=1 numcust=0 yearly=LoadProfile !xfkVA=5
New Load.1763673E_07570$1763673E_T_0757-1-A-2 phases=1 bus=X_1763673E_T_07570.1 kV=0.24 kW = 6.76 pf=0.8 status=variable mode=4 CVRwatts=0.8 CVRvars=3 class=1 numcust=0 yearly=LoadProfile !xfkVA=5
New Load.1763673E_07570$1763673E_T_0757-1-B-2 phases=1 bus=X_1763673E_T_07570.2 kV=0.24 kW = 6.76 pf=0.8 status=variable mode=4 CVRwatts=0.8 CVRvars=3 class=1 numcust=0 yearly=LoadProfile !xfkVA=5
New Load.1763673E_07570$1763673E_T_0757-1-C-2 phases=1 bus=X_1763673E_T_07570.3 kV=0.24 kW = 6.76 pf=0.8 status=variable mode=4 CVRwatts=0.8 CVRvars=3 class=1 numcust=0 yearly=LoadProfile !xfkVA=5
!*** New Load.1763673E_07570$1763673E_T_0757-1-A-3 phases=1 bus=X_1763673E_T_07570.1 kV=0.24 kW = 0 pf=0 status=variable mode=4 CVRwatts=0.8 CVRvars=3 class=1 numcust=0 yearly=LoadProfile !xfkVA=0
!*** New Load.1763673E_07570$1763673E_T_0757-1-B-3 phases=1 bus=X_1763673E_T_07570.2 kV=0.24 kW = 0 pf=0 status=variable mode=4 CVRwatts=0.8 CVRvars=3 class=1 numcust=0 yearly=LoadProfile !xfkVA=0
!*** New Load.1763673E_07570$1763673E_T_0757-1-C-3 phases=1 bus=X_1763673E_T_07570.3 kV=0.24 kW = 0 pf=0 status=variable mode=4 CVRwatts=0.8 CVRvars=3 class=1 numcust=0 yearly=LoadProfile !xfkVA=0
New Load.4705526E-ABC-1 phases=3 bus=X_4705526E_T_07570.1.2.3 kV=0.48 kW = 17.3727458222014 pf=0.66575478 status=variable mode=4 CVRwatts=0.8 CVRvars=3 class=1 numcust=0 yearly=LoadProfile !xfkVA=38
New Load.P5403124-A-1 phases=1 bus=X_P5403124_T_07570.1 kV=0.24 kW = 11.8560738178392 pf=0.64040873 status=variable mode=4 CVRwatts=0.8 CVRvars=3 class=1 numcust=0 yearly=LoadProfile !xfkVA=25
New Load.P5601317-1_T_07570$P5601317_T_-1-A-1 phases=1 bus=X_P5601317_T_07570.1 kV=0.24 kW = 23.7121476356783 pf=0.64040873 status=variable mode=4 CVRwatts=0.8 CVRvars=3 class=1 numcust=0 yearly=LoadProfile !xfkVA=50
New Load.P5601317-1_T_07570$P5601317_T_-1-B-1 phases=1 bus=X_P5601317_T_07570.2 kV=0.24 kW = 26.9221236685042 pf=0.74365992 status=variable mode=4 CVRwatts=0.8 CVRvars=3 class=1 numcust=0 yearly=LoadProfile !xfkVA=50
New Load.P5601317-1_T_07570$P5601317_T_-1-C-1 phases=1 bus=X_P5601317_T_07570.3 kV=0.24 kW = 26.6326534199404 pf=0.66259869 status=variable mode=4 CVRwatts=0.8 CVRvars=3 class=1 numcust=0 yearly=LoadProfile !xfkVA=50
New Load.P5601317-1_T_07570$P5601317_T_-1-A-2 phases=1 bus=X_P5601317_T_07570.1 kV=0.24 kW = 40 pf=0.8 status=variable mode=4 CVRwatts=0.8 CVRvars=3 class=1 numcust=0 yearly=LoadProfile !xfkVA=50
New Load.P5601317-1_T_07570$P5601317_T_-1-B-2 phases=1 bus=X_P5601317_T_07570.2 kV=0.24 kW = 40 pf=0.8 status=variable mode=4 CVRwatts=0.8 CVRvars=3 class=1 numcust=0 yearly=LoadProfile !xfkVA=50
New Load.P5601317-1_T_07570$P5601317_T_-1-C-2 phases=1 bus=X_P5601317_T_07570.3 kV=0.24 kW = 40 pf=0.8 status=variable mode=4 CVRwatts=0.8 CVRvars=3 class=1 numcust=0 yearly=LoadProfile !xfkVA=50
!*** New Load.P5601317-1_T_07570$P5601317_T_-1-A-3 phases=1 bus=X_P5601317_T_07570.1 kV=0.24 kW = 0 pf=0 status=variable mode=4 CVRwatts=0.8 CVRvars=3 class=1 numcust=0 yearly=LoadProfile !xfkVA=0
!*** New Load.P5601317-1_T_07570$P5601317_T_-1-B-3 phases=1 bus=X_P5601317_T_07570.2 kV=0.24 kW = 0 pf=0 status=variable mode=4 CVRwatts=0.8 CVRvars=3 class=1 numcust=0 yearly=LoadProfile !xfkVA=0
!*** New Load.P5601317-1_T_07570$P5601317_T_-1-C-3 phases=1 bus=X_P5601317_T_07570.3 kV=0.24 kW = 0 pf=0 status=variable mode=4 CVRwatts=0.8 CVRvars=3 class=1 numcust=0 yearly=LoadProfile !xfkVA=0
New Load.4772513E-ABC-1 phases=3 bus=X_4772513E_T_07570.1.2.3 kV=0.48 kW = 104.236474267453 pf=0.66575478 status=variable mode=4 CVRwatts=0.8 CVRvars=3 class=1 numcust=0 yearly=LoadProfile !xfkVA=225
New Load.4002234E-ABC-1 phases=3 bus=X_4002234E_T_07570.1.2.3 kV=0.48 kW = 34.7454916444027 pf=0.66575478 status=variable mode=4 CVRwatts=0.8 CVRvars=3 class=1 numcust=0 yearly=LoadProfile !xfkVA=75
New Load.4553236E_07570$4553236E_T_0757-1-A-1 phases=1 bus=X_4553236E_T_07570.1 kV=0.24 kW = 1.58080988507247 pf=0.64040873 status=variable mode=4 CVRwatts=0.8 CVRvars=3 class=1 numcust=0 yearly=LoadProfile !xfkVA=3
New Load.4553236E_07570$4553236E_T_0757-1-B-1 phases=1 bus=X_4553236E_T_07570.2 kV=0.24 kW = 1.7948083437216 pf=0.74365992 status=variable mode=4 CVRwatts=0.8 CVRvars=3 class=1 numcust=0 yearly=LoadProfile !xfkVA=3
New Load.4553236E_07570$4553236E_T_0757-1-C-1 phases=1 bus=X_4553236E_T_07570.3 kV=0.24 kW = 1.77551005130304 pf=0.66259869 status=variable mode=4 CVRwatts=0.8 CVRvars=3 class=1 numcust=0 yearly=LoadProfile !xfkVA=3
New Load.4553236E_07570$4553236E_T_0757-1-A-2 phases=1 bus=X_4553236E_T_07570.1 kV=0.24 kW = 2.6666664 pf=0.8 status=variable mode=4 CVRwatts=0.8 CVRvars=3 class=1 numcust=0 yearly=LoadProfile !xfkVA=3
New Load.4553236E_07570$4553236E_T_0757-1-B-2 phases=1 bus=X_4553236E_T_07570.2 kV=0.24 kW = 2.6666664 pf=0.8 status=variable mode=4 CVRwatts=0.8 CVRvars=3 class=1 numcust=0 yearly=LoadProfile !xfkVA=3
New Load.4553236E_07570$4553236E_T_0757-1-C-2 phases=1 bus=X_4553236E_T_07570.3 kV=0.24 kW = 2.6666664 pf=0.8 status=variable mode=4 CVRwatts=0.8 CVRvars=3 class=1 numcust=0 yearly=LoadProfile !xfkVA=3
!*** New Load.4553236E_07570$4553236E_T_0757-1-A-3 phases=1 bus=X_4553236E_T_07570.1 kV=0.24 kW = 0 pf=0 status=variable mode=4 CVRwatts=0.8 CVRvars=3 class=1 numcust=0 yearly=LoadProfile !xfkVA=0
!*** New Load.4553236E_07570$4553236E_T_0757-1-B-3 phases=1 bus=X_4553236E_T_07570.2 kV=0.24 kW = 0 pf=0 status=variable mode=4 CVRwatts=0.8 CVRvars=3 class=1 numcust=0 yearly=LoadProfile !xfkVA=0
!*** New Load.4553236E_07570$4553236E_T_0757-1-C-3 phases=1 bus=X_4553236E_T_07570.3 kV=0.24 kW = 0 pf=0 status=variable mode=4 CVRwatts=0.8 CVRvars=3 class=1 numcust=0 yearly=LoadProfile !xfkVA=0
New Load.4210436E-ABC-1 phases=3 bus=X_4210436E_T_07570.1.2.3 kV=0.48 kW = 20.8472947203397 pf=0.66575478 status=variable mode=4 CVRwatts=0.8 CVRvars=3 class=1 numcust=0 yearly=LoadProfile !xfkVA=45
New Load.936059E-ABC-1 phases=3 bus=X_936059E_T_07570.1.2.3 kV=0.48 kW = 13.898196924063 pf=0.66575478 status=variable mode=4 CVRwatts=0.8 CVRvars=3 class=1 numcust=0 yearly=LoadProfile !xfkVA=30
New Load.4553228E-ABC-1 phases=3 bus=X_4553228E_T_07570.1.2.3 kV=0.48 kW = 6.9490984620315 pf=0.66575478 status=variable mode=4 CVRwatts=0.8 CVRvars=3 class=1 numcust=0 yearly=LoadProfile !xfkVA=15
New Load.2197942E-ABC-1 phases=3 bus=X_2197942E_T_07570.1.2.3 kV=0.48 kW = 4.63273252993926 pf=0.66575478 status=variable mode=4 CVRwatts=0.8 CVRvars=3 class=1 numcust=0 yearly=LoadProfile !xfkVA=10
New Load.4695030E-ABC-1 phases=3 bus=X_4695030E_T_07570.1.2.3 kV=0.48 kW = 34.7454916444027 pf=0.66575478 status=variable mode=4 CVRwatts=0.8 CVRvars=3 class=1 numcust=0 yearly=LoadProfile !xfkVA=75
New Load.4694280E-ABC-1 phases=3 bus=X_4694280E_T_07570.1.2.3 kV=0.48 kW = 34.7454916444027 pf=0.66575478 status=variable mode=4 CVRwatts=0.8 CVRvars=3 class=1 numcust=0 yearly=LoadProfile !xfkVA=75
New Load.1807900E_07570$1807900E_T_0757-1-A-1 phases=1 bus=X_1807900E_T_07570.1 kV=0.24 kW = 3.95202439247681 pf=0.64040873 status=variable mode=4 CVRwatts=0.8 CVRvars=3 class=1 numcust=0 yearly=LoadProfile !xfkVA=8
New Load.1807900E_07570$1807900E_T_0757-1-B-1 phases=1 bus=X_1807900E_T_07570.2 kV=0.24 kW = 4.48702011564408 pf=0.74365992 status=variable mode=4 CVRwatts=0.8 CVRvars=3 class=1 numcust=0 yearly=LoadProfile !xfkVA=8
New Load.1807900E_07570$1807900E_T_0757-1-C-1 phases=1 bus=X_1807900E_T_07570.3 kV=0.24 kW = 4.4387751282576 pf=0.66259869 status=variable mode=4 CVRwatts=0.8 CVRvars=3 class=1 numcust=0 yearly=LoadProfile !xfkVA=8
New Load.1807900E_07570$1807900E_T_0757-1-A-2 phases=1 bus=X_1807900E_T_07570.1 kV=0.24 kW = 8.8 pf=0.8 status=variable mode=4 CVRwatts=0.8 CVRvars=3 class=1 numcust=0 yearly=LoadProfile !xfkVA=8
New Load.1807900E_07570$1807900E_T_0757-1-B-2 phases=1 bus=X_1807900E_T_07570.2 kV=0.24 kW = 8.8 pf=0.8 status=variable mode=4 CVRwatts=0.8 CVRvars=3 class=1 numcust=0 yearly=LoadProfile !xfkVA=8
New Load.1807900E_07570$1807900E_T_0757-1-C-2 phases=1 bus=X_1807900E_T_07570.3 kV=0.24 kW = 8.8 pf=0.8 status=variable mode=4 CVRwatts=0.8 CVRvars=3 class=1 numcust=0 yearly=LoadProfile !xfkVA=8
!*** New Load.1807900E_07570$1807900E_T_0757-1-A-3 phases=1 bus=X_1807900E_T_07570.1 kV=0.24 kW = 0 pf=0 status=variable mode=4 CVRwatts=0.8 CVRvars=3 class=1 numcust=0 yearly=LoadProfile !xfkVA=0
!*** New Load.1807900E_07570$1807900E_T_0757-1-B-3 phases=1 bus=X_1807900E_T_07570.2 kV=0.24 kW = 0 pf=0 status=variable mode=4 CVRwatts=0.8 CVRvars=3 class=1 numcust=0 yearly=LoadProfile !xfkVA=0
!*** New Load.1807900E_07570$1807900E_T_0757-1-C-3 phases=1 bus=X_1807900E_T_07570.3 kV=0.24 kW = 0 pf=0 status=variable mode=4 CVRwatts=0.8 CVRvars=3 class=1 numcust=0 yearly=LoadProfile !xfkVA=0
New Load.1340496E_07570$1340496E_T_0757-1-A-1 phases=1 bus=X_1340496E_T_07570.1 kV=0.24 kW = 3.95202439247681 pf=0.64040873 status=variable mode=4 CVRwatts=0.8 CVRvars=3 class=1 numcust=0 yearly=LoadProfile !xfkVA=8
New Load.1340496E_07570$1340496E_T_0757-1-B-1 phases=1 bus=X_1340496E_T_07570.2 kV=0.24 kW = 4.48702011564408 pf=0.74365992 status=variable mode=4 CVRwatts=0.8 CVRvars=3 class=1 numcust=0 yearly=LoadProfile !xfkVA=8
New Load.1340496E_07570$1340496E_T_0757-1-C-1 phases=1 bus=X_1340496E_T_07570.3 kV=0.24 kW = 4.4387751282576 pf=0.66259869 status=variable mode=4 CVRwatts=0.8 CVRvars=3 class=1 numcust=0 yearly=LoadProfile !xfkVA=8
New Load.1340496E_07570$1340496E_T_0757-1-A-2 phases=1 bus=X_1340496E_T_07570.1 kV=0.24 kW = 4.1333336 pf=0.8 status=variable mode=4 CVRwatts=0.8 CVRvars=3 class=1 numcust=0 yearly=LoadProfile !xfkVA=8
New Load.1340496E_07570$1340496E_T_0757-1-B-2 phases=1 bus=X_1340496E_T_07570.2 kV=0.24 kW = 4.1333336 pf=0.8 status=variable mode=4 CVRwatts=0.8 CVRvars=3 class=1 numcust=0 yearly=LoadProfile !xfkVA=8
New Load.1340496E_07570$1340496E_T_0757-1-C-2 phases=1 bus=X_1340496E_T_07570.3 kV=0.24 kW = 4.1333336 pf=0.8 status=variable mode=4 CVRwatts=0.8 CVRvars=3 class=1 numcust=0 yearly=LoadProfile !xfkVA=8
!*** New Load.1340496E_07570$1340496E_T_0757-1-A-3 phases=1 bus=X_1340496E_T_07570.1 kV=0.24 kW = 0 pf=0 status=variable mode=4 CVRwatts=0.8 CVRvars=3 class=1 numcust=0 yearly=LoadProfile !xfkVA=0
!*** New Load.1340496E_07570$1340496E_T_0757-1-B-3 phases=1 bus=X_1340496E_T_07570.2 kV=0.24 kW = 0 pf=0 status=variable mode=4 CVRwatts=0.8 CVRvars=3 class=1 numcust=0 yearly=LoadProfile !xfkVA=0
!*** New Load.P5476178-1_T_07570$P5476178_T_-1-A-3 phases=1 bus=X_P5476178_T_07570.1 kV=0.24 kW = 0 pf=0 status=variable mode=4 CVRwatts=0.8 CVRvars=3 class=1 numcust=0 yearly=LoadProfile !xfkVA=0
!*** New Load.P5476178-1_T_07570$P5476178_T_-1-B-3 phases=1 bus=X_P5476178_T_07570.2 kV=0.24 kW = 0 pf=0 status=variable mode=4 CVRwatts=0.8 CVRvars=3 class=1 numcust=0 yearly=LoadProfile !xfkVA=0
!*** New Load.P5476178-1_T_07570$P5476178_T_-1-C-3 phases=1 bus=X_P5476178_T_07570.3 kV=0.24 kW = 0 pf=0 status=variable mode=4 CVRwatts=0.8 CVRvars=3 class=1 numcust=0 yearly=LoadProfile !xfkVA=0
New Load.1636824E-ABC-1 phases=3 bus=X_1636824E_T_07570.1.2.3 kV=0.48 kW = 6.9490984620315 pf=0.66575478 status=variable mode=4 CVRwatts=0.8 CVRvars=3 class=1 numcust=0 yearly=LoadProfile !xfkVA=15
New Load.1982338E_07570$1982338E_T_0757-1-A-1 phases=1 bus=X_1982338E_T_07570.1 kV=0.24 kW = 1.58080988507247 pf=0.64040873 status=variable mode=4 CVRwatts=0.8 CVRvars=3 class=1 numcust=0 yearly=LoadProfile !xfkVA=3
New Load.1982338E_07570$1982338E_T_0757-1-B-1 phases=1 bus=X_1982338E_T_07570.2 kV=0.24 kW = 1.7948083437216 pf=0.74365992 status=variable mode=4 CVRwatts=0.8 CVRvars=3 class=1 numcust=0 yearly=LoadProfile !xfkVA=3
New Load.1982338E_07570$1982338E_T_0757-1-C-1 phases=1 bus=X_1982338E_T_07570.3 kV=0.24 kW = 1.77551005130304 pf=0.66259869 status=variable mode=4 CVRwatts=0.8 CVRvars=3 class=1 numcust=0 yearly=LoadProfile !xfkVA=3
New Load.1982338E_07570$1982338E_T_0757-1-A-2 phases=1 bus=X_1982338E_T_07570.1 kV=0.24 kW = 2.4266664 pf=0.8 status=variable mode=4 CVRwatts=0.8 CVRvars=3 class=1 numcust=0 yearly=LoadProfile !xfkVA=3
New Load.1982338E_07570$1982338E_T_0757-1-B-2 phases=1 bus=X_1982338E_T_07570.2 kV=0.24 kW = 2.4266664 pf=0.8 status=variable mode=4 CVRwatts=0.8 CVRvars=3 class=1 numcust=0 yearly=LoadProfile !xfkVA=3
New Load.1982338E_07570$1982338E_T_0757-1-C-2 phases=1 bus=X_1982338E_T_07570.3 kV=0.24 kW = 2.4266664 pf=0.8 status=variable mode=4 CVRwatts=0.8 CVRvars=3 class=1 numcust=0 yearly=LoadProfile !xfkVA=3
!*** New Load.1982338E_07570$1982338E_T_0757-1-A-3 phases=1 bus=X_1982338E_T_07570.1 kV=0.24 kW = 0 pf=0 status=variable mode=4 CVRwatts=0.8 CVRvars=3 class=1 numcust=0 yearly=LoadProfile !xfkVA=0
!*** New Load.1982338E_07570$1982338E_T_0757-1-B-3 phases=1 bus=X_1982338E_T_07570.2 kV=0.24 kW = 0 pf=0 status=variable mode=4 CVRwatts=0.8 CVRvars=3 class=1 numcust=0 yearly=LoadProfile !xfkVA=0
!*** New Load.1982338E_07570$1982338E_T_0757-1-C-3 phases=1 bus=X_1982338E_T_07570.3 kV=0.24 kW = 0 pf=0 status=variable mode=4 CVRwatts=0.8 CVRvars=3 class=1 numcust=0 yearly=LoadProfile !xfkVA=0
New Load.4362819E-ABC-1 phases=3 bus=X_4362819E_T_07570.1.2.3 kV=0.48 kW = 16.2145628561552 pf=0.66575478 status=variable mode=4 CVRwatts=0.8 CVRvars=3 class=1 numcust=0 yearly=LoadProfile !xfkVA=35
New Load.4505903E_07570$4505903E_T_0757-1-A-1 phases=1 bus=X_4505903E_T_07570.1 kV=0.24 kW = 2.37121450740434 pf=0.64040873 status=variable mode=4 CVRwatts=0.8 CVRvars=3 class=1 numcust=0 yearly=LoadProfile !xfkVA=5
New Load.4505903E_07570$4505903E_T_0757-1-B-1 phases=1 bus=X_4505903E_T_07570.2 kV=0.24 kW = 2.6922125155824 pf=0.74365992 status=variable mode=4 CVRwatts=0.8 CVRvars=3 class=1 numcust=0 yearly=LoadProfile !xfkVA=5
New Load.4505903E_07570$4505903E_T_0757-1-C-1 phases=1 bus=X_4505903E_T_07570.3 kV=0.24 kW = 2.66326507695456 pf=0.66259869 status=variable mode=4 CVRwatts=0.8 CVRvars=3 class=1 numcust=0 yearly=LoadProfile !xfkVA=5
New Load.4505903E_07570$4505903E_T_0757-1-A-2 phases=1 bus=X_4505903E_T_07570.1 kV=0.24 kW = 5.96 pf=0.8 status=variable mode=4 CVRwatts=0.8 CVRvars=3 class=1 numcust=0 yearly=LoadProfile !xfkVA=5
New Load.4505903E_07570$4505903E_T_0757-1-B-2 phases=1 bus=X_4505903E_T_07570.2 kV=0.24 kW = 5.96 pf=0.8 status=variable mode=4 CVRwatts=0.8 CVRvars=3 class=1 numcust=0 yearly=LoadProfile !xfkVA=5
New Load.4505903E_07570$4505903E_T_0757-1-C-2 phases=1 bus=X_4505903E_T_07570.3 kV=0.24 kW = 5.96 pf=0.8 status=variable mode=4 CVRwatts=0.8 CVRvars=3 class=1 numcust=0 yearly=LoadProfile !xfkVA=5
!*** New Load.4505903E_07570$4505903E_T_0757-1-A-3 phases=1 bus=X_4505903E_T_07570.1 kV=0.24 kW = 0 pf=0 status=variable mode=4 CVRwatts=0.8 CVRvars=3 class=1 numcust=0 yearly=LoadProfile !xfkVA=0
!*** New Load.4505903E_07570$4505903E_T_0757-1-B-3 phases=1 bus=X_4505903E_T_07570.2 kV=0.24 kW = 0 pf=0 status=variable mode=4 CVRwatts=0.8 CVRvars=3 class=1 numcust=0 yearly=LoadProfile !xfkVA=0
!*** New Load.4505903E_07570$4505903E_T_0757-1-C-3 phases=1 bus=X_4505903E_T_07570.3 kV=0.24 kW = 0 pf=0 status=variable mode=4 CVRwatts=0.8 CVRvars=3 class=1 numcust=0 yearly=LoadProfile !xfkVA=0
New Load.4368659E-ABC-1 phases=3 bus=X_4368659E_T_07570.1.2.3 kV=0.48 kW = 34.7454916444027 pf=0.66575478 status=variable mode=4 CVRwatts=0.8 CVRvars=3 class=1 numcust=0 yearly=LoadProfile !xfkVA=75
New Load.4180602E-ABC-1 phases=3 bus=X_4180602E_T_07570.1.2.3 kV=0.48 kW = 9.26546439412374 pf=0.66575478 status=variable mode=4 CVRwatts=0.8 CVRvars=3 class=1 numcust=0 yearly=LoadProfile !xfkVA=20
New Load.1763646E-ABC-1 phases=3 bus=X_1763646E_T_07570.1.2.3 kV=0.48 kW = 2.31636593209224 pf=0.66575478 status=variable mode=4 CVRwatts=0.8 CVRvars=3 class=1 numcust=0 yearly=LoadProfile !xfkVA=5
New Load.4477501E-ABC-1 phases=3 bus=X_4477501E_T_07570.1.2.3 kV=0.48 kW = 11.581830326216 pf=0.66575478 status=variable mode=4 CVRwatts=0.8 CVRvars=3 class=1 numcust=0 yearly=LoadProfile !xfkVA=25
New Load.4699973E_07570$4699973E_T_0757-1-A-1 phases=1 bus=X_4699973E_T_07570.1 kV=0.24 kW = 5.92803690891958 pf=0.64040873 status=variable mode=4 CVRwatts=0.8 CVRvars=3 class=1 numcust=0 yearly=LoadProfile !xfkVA=12
New Load.4699973E_07570$4699973E_T_0757-1-B-1 phases=1 bus=X_4699973E_T_07570.2 kV=0.24 kW = 6.730531288956 pf=0.74365992 status=variable mode=4 CVRwatts=0.8 CVRvars=3 class=1 numcust=0 yearly=LoadProfile !xfkVA=12
New Load.4699973E_07570$4699973E_T_0757-1-C-1 phases=1 bus=X_4699973E_T_07570.3 kV=0.24 kW = 6.65816335498509 pf=0.66259869 status=variable mode=4 CVRwatts=0.8 CVRvars=3 class=1 numcust=0 yearly=LoadProfile !xfkVA=12
New Load.4699973E_07570$4699973E_T_0757-1-A-2 phases=1 bus=X_4699973E_T_07570.1 kV=0.24 kW = 10 pf=0.8 status=variable mode=4 CVRwatts=0.8 CVRvars=3 class=1 numcust=0 yearly=LoadProfile !xfkVA=12
New Load.4699973E_07570$4699973E_T_0757-1-B-2 phases=1 bus=X_4699973E_T_07570.2 kV=0.24 kW = 10 pf=0.8 status=variable mode=4 CVRwatts=0.8 CVRvars=3 class=1 numcust=0 yearly=LoadProfile !xfkVA=12
New Load.4699973E_07570$4699973E_T_0757-1-C-2 phases=1 bus=X_4699973E_T_07570.3 kV=0.24 kW = 10 pf=0.8 status=variable mode=4 CVRwatts=0.8 CVRvars=3 class=1 numcust=0 yearly=LoadProfile !xfkVA=12
!*** New Load.4699973E_07570$4699973E_T_0757-1-A-3 phases=1 bus=X_4699973E_T_07570.1 kV=0.24 kW = 0 pf=0 status=variable mode=4 CVRwatts=0.8 CVRvars=3 class=1 numcust=0 yearly=LoadProfile !xfkVA=0
!*** New Load.4699973E_07570$4699973E_T_0757-1-B-3 phases=1 bus=X_4699973E_T_07570.2 kV=0.24 kW = 0 pf=0 status=variable mode=4 CVRwatts=0.8 CVRvars=3 class=1 numcust=0 yearly=LoadProfile !xfkVA=0
!*** New Load.4699973E_07570$4699973E_T_0757-1-C-3 phases=1 bus=X_4699973E_T_07570.3 kV=0.24 kW = 0 pf=0 status=variable mode=4 CVRwatts=0.8 CVRvars=3 class=1 numcust=0 yearly=LoadProfile !xfkVA=0
New Load.4540721E-ABC-1 phases=3 bus=X_4540721E_T_07570.1.2.3 kV=0.48 kW = 40.5364064746333 pf=0.66575478 status=variable mode=4 CVRwatts=0.8 CVRvars=3 class=1 numcust=0 yearly=LoadProfile !xfkVA=88
New Load.P5403116-ABC-1 phases=3 bus=X_P5403116_T_07570.1.2.3 kV=0.48 kW = 69.4909832888055 pf=0.66575478 status=variable mode=4 CVRwatts=0.8 CVRvars=3 class=1 numcust=0 yearly=LoadProfile !xfkVA=150
New Load.1982073E_07570$1982073E_T_0757-1-A-1 phases=1 bus=X_1982073E_T_07570.1 kV=0.24 kW = 2.37121450740434 pf=0.64040873 status=variable mode=4 CVRwatts=0.8 CVRvars=3 class=1 numcust=0 yearly=LoadProfile !xfkVA=5
New Load.1982073E_07570$1982073E_T_0757-1-B-1 phases=1 bus=X_1982073E_T_07570.2 kV=0.24 kW = 2.6922125155824 pf=0.74365992 status=variable mode=4 CVRwatts=0.8 CVRvars=3 class=1 numcust=0 yearly=LoadProfile !xfkVA=5
New Load.1982073E_07570$1982073E_T_0757-1-C-1 phases=1 bus=X_1982073E_T_07570.3 kV=0.24 kW = 2.66326507695456 pf=0.66259869 status=variable mode=4 CVRwatts=0.8 CVRvars=3 class=1 numcust=0 yearly=LoadProfile !xfkVA=5
New Load.1982073E_07570$1982073E_T_0757-1-A-2 phases=1 bus=X_1982073E_T_07570.1 kV=0.24 kW = 4.68 pf=0.8 status=variable mode=4 CVRwatts=0.8 CVRvars=3 class=1 numcust=0 yearly=LoadProfile !xfkVA=5
New Load.1982073E_07570$1982073E_T_0757-1-B-2 phases=1 bus=X_1982073E_T_07570.2 kV=0.24 kW = 4.68 pf=0.8 status=variable mode=4 CVRwatts=0.8 CVRvars=3 class=1 numcust=0 yearly=LoadProfile !xfkVA=5
New Load.1982073E_07570$1982073E_T_0757-1-C-2 phases=1 bus=X_1982073E_T_07570.3 kV=0.24 kW = 4.68 pf=0.8 status=variable mode=4 CVRwatts=0.8 CVRvars=3 class=1 numcust=0 yearly=LoadProfile !xfkVA=5
!*** New Load.1982073E_07570$1982073E_T_0757-1-A-3 phases=1 bus=X_1982073E_T_07570.1 kV=0.24 kW = 0 pf=0 status=variable mode=4 CVRwatts=0.8 CVRvars=3 class=1 numcust=0 yearly=LoadProfile !xfkVA=0
!*** New Load.1982073E_07570$1982073E_T_0757-1-B-3 phases=1 bus=X_1982073E_T_07570.2 kV=0.24 kW = 0 pf=0 status=variable mode=4 CVRwatts=0.8 CVRvars=3 class=1 numcust=0 yearly=LoadProfile !xfkVA=0
!*** New Load.1982073E_07570$1982073E_T_0757-1-C-3 phases=1 bus=X_1982073E_T_07570.3 kV=0.24 kW = 0 pf=0 status=variable mode=4 CVRwatts=0.8 CVRvars=3 class=1 numcust=0 yearly=LoadProfile !xfkVA=0
New Load.4099194E-ABC-1 phases=3 bus=X_4099194E_T_07570.1.2.3 kV=0.48 kW = 34.7454916444027 pf=0.66575478 status=variable mode=4 CVRwatts=0.8 CVRvars=3 class=1 numcust=0 yearly=LoadProfile !xfkVA=75
!*** New Load.1982184E-ABC-1 phases=3 bus=X_1982184E_T_07570.1.2.3 kV=0.48 kW = 0 pf=0 status=variable mode=4 CVRwatts=0.8 CVRvars=3 class=1 numcust=0 yearly=LoadProfile !xfkVA=0
New Load.4658388E-ABC-1 phases=3 bus=X_4658388E_T_07570.1.2.3 kV=0.48 kW = 52.1182374666041 pf=0.66575478 status=variable mode=4 CVRwatts=0.8 CVRvars=3 class=1 numcust=0 yearly=LoadProfile !xfkVA=112
New Load.4477301E_07570$4477301E_T_0757-1-A-1 phases=1 bus=X_4477301E_T_07570.1 kV=0.24 kW = 3.95202439247681 pf=0.64040873 status=variable mode=4 CVRwatts=0.8 CVRvars=3 class=1 numcust=0 yearly=LoadProfile !xfkVA=8
New Load.4477301E_07570$4477301E_T_0757-1-B-1 phases=1 bus=X_4477301E_T_07570.2 kV=0.24 kW = 4.48702011564408 pf=0.74365992 status=variable mode=4 CVRwatts=0.8 CVRvars=3 class=1 numcust=0 yearly=LoadProfile !xfkVA=8
New Load.4477301E_07570$4477301E_T_0757-1-C-1 phases=1 bus=X_4477301E_T_07570.3 kV=0.24 kW = 4.4387751282576 pf=0.66259869 status=variable mode=4 CVRwatts=0.8 CVRvars=3 class=1 numcust=0 yearly=LoadProfile !xfkVA=8
New Load.4477301E_07570$4477301E_T_0757-1-A-2 phases=1 bus=X_4477301E_T_07570.1 kV=0.24 kW = 3.1333336 pf=0.8 status=variable mode=4 CVRwatts=0.8 CVRvars=3 class=1 numcust=0 yearly=LoadProfile !xfkVA=8
New Load.4477301E_07570$4477301E_T_0757-1-B-2 phases=1 bus=X_4477301E_T_07570.2 kV=0.24 kW = 3.1333336 pf=0.8 status=variable mode=4 CVRwatts=0.8 CVRvars=3 class=1 numcust=0 yearly=LoadProfile !xfkVA=8
New Load.4477301E_07570$4477301E_T_0757-1-C-2 phases=1 bus=X_4477301E_T_07570.3 kV=0.24 kW = 3.1333336 pf=0.8 status=variable mode=4 CVRwatts=0.8 CVRvars=3 class=1 numcust=0 yearly=LoadProfile !xfkVA=8
!*** New Load.4477301E_07570$4477301E_T_0757-1-A-3 phases=1 bus=X_4477301E_T_07570.1 kV=0.24 kW = 0 pf=0 status=variable mode=4 CVRwatts=0.8 CVRvars=3 class=1 numcust=0 yearly=LoadProfile !xfkVA=0
!*** New Load.4477301E_07570$4477301E_T_0757-1-B-3 phases=1 bus=X_4477301E_T_07570.2 kV=0.24 kW = 0 pf=0 status=variable mode=4 CVRwatts=0.8 CVRvars=3 class=1 numcust=0 yearly=LoadProfile !xfkVA=0
!*** New Load.4477301E_07570$4477301E_T_0757-1-C-3 phases=1 bus=X_4477301E_T_07570.3 kV=0.24 kW = 0 pf=0 status=variable mode=4 CVRwatts=0.8 CVRvars=3 class=1 numcust=0 yearly=LoadProfile !xfkVA=0
New Load.4780491E-ABC-1 phases=3 bus=X_4780491E_T_07570.1.2.3 kV=0.48 kW = 34.7454916444027 pf=0.66575478 status=variable mode=4 CVRwatts=0.8 CVRvars=3 class=1 numcust=0 yearly=LoadProfile !xfkVA=75
New Load.458811E_07570$458811E_T_07570-1-A-1 phases=1 bus=X_458811E_T_07570.1 kV=0.24 kW = 1.58080988507247 pf=0.64040873 status=variable mode=4 CVRwatts=0.8 CVRvars=3 class=1 numcust=0 yearly=LoadProfile !xfkVA=3
New Load.458811E_07570$458811E_T_07570-1-B-1 phases=1 bus=X_458811E_T_07570.2 kV=0.24 kW = 1.7948083437216 pf=0.74365992 status=variable mode=4 CVRwatts=0.8 CVRvars=3 class=1 numcust=0 yearly=LoadProfile !xfkVA=3
New Load.458811E_07570$458811E_T_07570-1-C-1 phases=1 bus=X_458811E_T_07570.3 kV=0.24 kW = 1.77551005130304 pf=0.66259869 status=variable mode=4 CVRwatts=0.8 CVRvars=3 class=1 numcust=0 yearly=LoadProfile !xfkVA=3
New Load.458811E_07570$458811E_T_07570-1-A-2 phases=1 bus=X_458811E_T_07570.1 kV=0.24 kW = 2.6666664 pf=0.8 status=variable mode=4 CVRwatts=0.8 CVRvars=3 class=1 numcust=0 yearly=LoadProfile !xfkVA=3
New Load.458811E_07570$458811E_T_07570-1-B-2 phases=1 bus=X_458811E_T_07570.2 kV=0.24 kW = 2.6666664 pf=0.8 status=variable mode=4 CVRwatts=0.8 CVRvars=3 class=1 numcust=0 yearly=LoadProfile !xfkVA=3
New Load.458811E_07570$458811E_T_07570-1-C-2 phases=1 bus=X_458811E_T_07570.3 kV=0.24 kW = 2.6666664 pf=0.8 status=variable mode=4 CVRwatts=0.8 CVRvars=3 class=1 numcust=0 yearly=LoadProfile !xfkVA=3
!*** New Load.458811E_07570$458811E_T_07570-1-A-3 phases=1 bus=X_458811E_T_07570.1 kV=0.24 kW = 0 pf=0 status=variable mode=4 CVRwatts=0.8 CVRvars=3 class=1 numcust=0 yearly=LoadProfile !xfkVA=0
!*** New Load.458811E_07570$458811E_T_07570-1-B-3 phases=1 bus=X_458811E_T_07570.2 kV=0.24 kW = 0 pf=0 status=variable mode=4 CVRwatts=0.8 CVRvars=3 class=1 numcust=0 yearly=LoadProfile !xfkVA=0
!*** New Load.458811E_07570$458811E_T_07570-1-C-3 phases=1 bus=X_458811E_T_07570.3 kV=0.24 kW = 0 pf=0 status=variable mode=4 CVRwatts=0.8 CVRvars=3 class=1 numcust=0 yearly=LoadProfile !xfkVA=0
New Load.4552982E_07570$4552982E_T_0757-1-A-1 phases=1 bus=X_4552982E_T_07570.1 kV=0.24 kW = 1.58080988507247 pf=0.64040873 status=variable mode=4 CVRwatts=0.8 CVRvars=3 class=1 numcust=0 yearly=LoadProfile !xfkVA=3
New Load.4552982E_07570$4552982E_T_0757-1-B-1 phases=1 bus=X_4552982E_T_07570.2 kV=0.24 kW = 1.7948083437216 pf=0.74365992 status=variable mode=4 CVRwatts=0.8 CVRvars=3 class=1 numcust=0 yearly=LoadProfile !xfkVA=3
New Load.4552982E_07570$4552982E_T_0757-1-C-1 phases=1 bus=X_4552982E_T_07570.3 kV=0.24 kW = 1.77551005130304 pf=0.66259869 status=variable mode=4 CVRwatts=0.8 CVRvars=3 class=1 numcust=0 yearly=LoadProfile !xfkVA=3
New Load.4552982E_07570$4552982E_T_0757-1-A-2 phases=1 bus=X_4552982E_T_07570.1 kV=0.24 kW = 0.3733336 pf=0.8 status=variable mode=4 CVRwatts=0.8 CVRvars=3 class=1 numcust=0 yearly=LoadProfile !xfkVA=3