New Line.SL_4214689E-ABC-1_1 phases=3 bus1=X_4214689E_T_07570.1.2.3 bus2=X_4214689E_T_07570_SLD_1.1.2.3 linecode=OH-CU_3C_1/0 length=125 units=ft
New Line.SL_P5504308-C-1_1 phases=1 bus1=X_P5504308_T_07570.3 bus2=X_P5504308_T_07570_SLD_1.3 linecode=1/0_AL_TRIPLEX_1PH length=125 units=ft
New Line.SL_4671820E-ABC-1_1 phases=3 bus1=X_4671820E_T_07570.1.2.3 bus2=X_4671820E_T_07570_SLD_1.1.2.3 linecode=OH-CU_3C_1/0 length=125 units=ft
New Line.SL_4067277E-ABC-1_1 phases=3 bus1=X_4067277E_T_07570.1.2.3 bus2=X_4067277E_T_07570_SLD_1.1.2.3 linecode=OH-CU_3C_1/0 length=125 units=ft
New Line.SL_4553233E-ABC-1_1 phases=3 bus1=X_4553233E_T_07570.1.2.3 bus2=X_4553233E_T_07570_SLD_1.1.2.3 linecode=OH-CU_3C_1/0 length=125 units=ft
New Line.SL_4130912E-ABC-1_1 phases=3 bus1=X_4130912E_T_07570.1.2.3 bus2=X_4130912E_T_07570_SLD_1.1.2.3 linecode=OH-CU_3C_1/0 length=125 units=ft
New Line.SL_4362834E-ABC-1_1 phases=3 bus1=X_4362834E_T_07570.1.2.3 bus2=X_4362834E_T_07570_SLD_1.1.2.3 linecode=OH-CU_3C_1/0 length=125 units=ft
New Line.SL_4362828E-ABC-1_1 phases=3 bus1=X_4362828E_T_07570.1.2.3 bus2=X_4362828E_T_07570_SLD_1.1.2.3 linecode=OH-CU_3C_1/0 length=125 units=ft
New Line.SL_2331624E-ABC-1_1 phases=3 bus1=X_2331624E_T_07570.1.2.3 bus2=X_2331624E_T_07570_SLD_1.1.2.3 linecode=OH-CU_3C_1/0 length=125 units=ft
New Line.SL_2212593E-ABC-1_1 phases=3 bus1=X_2212593E_T_07570.1.2.3 bus2=X_2212593E_T_07570_SLD_1.1.2.3 linecode=OH-CU_3C_1/0 length=125 units=ft
New Line.SL_2212593E-ABC-1_2 phases=3 bus1=X_2212593E_T_07570.1.2.3 bus2=X_2212593E_T_07570_SLD_2.1.2.3 linecode=OH-CU_3C_1/0 length=125 units=ft
New Line.SL_1507174E-ABC-1_1 phases=3 bus1=X_1507174E_T_07570.1.2.3 bus2=X_1507174E_T_07570_SLD_1.1.2.3 linecode=OH-CU_3C_1/0 length=125 units=ft
New Line.SL_1475350E-ABC-1_1 phases=3 bus1=X_1475350E_T_07570.1.2.3 bus2=X_1475350E_T_07570_SLD_1.1.2.3 linecode=OH-CU_3C_1/0 length=125 units=ft
New Line.SL_4700177E-ABC-1_1 phases=3 bus1=X_4700177E_T_07570.1.2.3 bus2=X_4700177E_T_07570_SLD_1.1.2.3 linecode=OH-CU_3C_1/0 length=125 units=ft
New Line.SL_4700177E-ABC-1_2 phases=3 bus1=X_4700177E_T_07570.1.2.3 bus2=X_4700177E_T_07570_SLD_2.1.2.3 linecode=OH-CU_3C_1/0 length=125 units=ft
New Line.SL_4784743E-ABC-1_1 phases=3 bus1=X_4784743E_T_07570.1.2.3 bus2=X_4784743E_T_07570_SLD_1.1.2.3 linecode=OH-CU_3C_1/0 length=125 units=ft
New Line.SL_4784743E-ABC-1_2 phases=3 bus1=X_4784743E_T_07570.1.2.3 bus2=X_4784743E_T_07570_SLD_2.1.2.3 linecode=OH-CU_3C_1/0 length=125 units=ft
New Line.SL_2272786E-ABC-1_1 phases=3 bus1=X_2272786E_T_07570.1.2.3 bus2=X_2272786E_T_07570_SLD_1.1.2.3 linecode=OH-CU_3C_1/0 length=125 units=ft
New Line.SL_4274192E-ABC-1_1 phases=3 bus1=X_4274192E_T_07570.1.2.3 bus2=X_4274192E_T_07570_SLD_1.1.2.3 linecode=OH-CU_3C_1/0 length=125 units=ft
New Line.SL_1763996E-ABC-1_1 phases=3 bus1=X_1763996E_T_07570.1.2.3 bus2=X_1763996E_T_07570_SLD_1.1.2.3 linecode=OH-CU_3C_1/0 length=125 units=ft
New Line.SL_850250E_07570$850250E_T_07570-1-A-1_1 phases=1 bus1=X_850250E_T_07570.1 bus2=X_850250E_T_07570_SLD_1.1 linecode=1/0_AL_TRIPLEX_1PH length=125 units=ft
New Line.SL_1763673E_07570$1763673E_T_0757-1-A-1_1 phases=3 bus1=X_1763673E_T_07570.1 bus2=X_1763673E_T_07570_SLD_1.1 linecode=OH-CU_3C_1/0 length=125 units=ft
New Line.SL_1763673E_07570$1763673E_T_0757-1-B-1_1 phases=3 bus1=X_1763673E_T_07570.2 bus2=X_1763673E_T_07570_SLD_1.2 linecode=OH-CU_3C_1/0 length=125 units=ft
New Line.SL_1763673E_07570$1763673E_T_0757-1-C-1_1 phases=3 bus1=X_1763673E_T_07570.3 bus2=X_1763673E_T_07570_SLD_1.3 linecode=OH-CU_3C_1/0 length=125 units=ft
New Line.SL_4705526E-ABC-1_1 phases=3 bus1=X_4705526E_T_07570.1.2.3 bus2=X_4705526E_T_07570_SLD_1.1.2.3 linecode=OH-CU_3C_1/0 length=125 units=ft
New Line.SL_P5403124-A-1_1 phases=1 bus1=X_P5403124_T_07570.1 bus2=X_P5403124_T_07570_SLD_1.1 linecode=1/0_AL_TRIPLEX_1PH length=125 units=ft
New Line.SL_P5601317-1_T_07570$P5601317_T_-1-A-1_1 phases=3 bus1=X_P5601317_T_07570.1 bus2=X_P5601317_T_07570_SLD_1.1 linecode=OH-CU_3C_1/0 length=125 units=ft
New Line.SL_P5601317-1_T_07570$P5601317_T_-1-B-1_1 phases=3 bus1=X_P5601317_T_07570.2 bus2=X_P5601317_T_07570_SLD_1.2 linecode=OH-CU_3C_1/0 length=125 units=ft
New Line.SL_P5601317-1_T_07570$P5601317_T_-1-C-1_1 phases=3 bus1=X_P5601317_T_07570.3 bus2=X_P5601317_T_07570_SLD_1.3 linecode=OH-CU_3C_1/0 length=125 units=ft
New Line.SL_4772513E-ABC-1_1 phases=3 bus1=X_4772513E_T_07570.1.2.3 bus2=X_4772513E_T_07570_SLD_1.1.2.3 linecode=OH-CU_3C_1/0 length=125 units=ft
New Line.SL_4772513E-ABC-1_2 phases=3 bus1=X_4772513E_T_07570.1.2.3 bus2=X_4772513E_T_07570_SLD_2.1.2.3 linecode=OH-CU_3C_1/0 length=125 units=ft
New Line.SL_4772513E-ABC-1_3 phases=3 bus1=X_4772513E_T_07570.1.2.3 bus2=X_4772513E_T_07570_SLD_3.1.2.3 linecode=OH-CU_3C_1/0 length=125 units=ft
New Line.SL_4002234E-ABC-1_1 phases=3 bus1=X_4002234E_T_07570.1.2.3 bus2=X_4002234E_T_07570_SLD_1.1.2.3 linecode=OH-CU_3C_1/0 length=125 units=ft
New Line.SL_4553236E_07570$4553236E_T_0757-1-A-1_1 phases=3 bus1=X_4553236E_T_07570.1 bus2=X_4553236E_T_07570_SLD_1.1 linecode=OH-CU_3C_1/0 length=125 units=ft
New Line.SL_4553236E_07570$4553236E_T_0757-1-B-1_1 phases=3 bus1=X_4553236E_T_07570.2 bus2=X_4553236E_T_07570_SLD_1.2 linecode=OH-CU_3C_1/0 length=125 units=ft
New Line.SL_4553236E_07570$4553236E_T_0757-1-C-1_1 phases=3 bus1=X_4553236E_T_07570.3 bus2=X_4553236E_T_07570_SLD_1.3 linecode=OH-CU_3C_1/0 length=125 units=ft
New Line.SL_4210436E-ABC-1_1 phases=3 bus1=X_4210436E_T_07570.1.2.3 bus2=X_4210436E_T_07570_SLD_1.1.2.3 linecode=OH-CU_3C_1/0 length=125 units=ft
New Line.SL_936059E-ABC-1_1 phases=3 bus1=X_936059E_T_07570.1.2.3 bus2=X_936059E_T_07570_SLD_1.1.2.3 linecode=OH-CU_3C_1/0 length=125 units=ft
New Line.SL_4553228E-ABC-1_1 phases=3 bus1=X_4553228E_T_07570.1.2.3 bus2=X_4553228E_T_07570_SLD_1.1.2.3 linecode=OH-CU_3C_1/0 length=125 units=ft
New Line.SL_2197942E-ABC-1_1 phases=3 bus1=X_2197942E_T_07570.1.2.3 bus2=X_2197942E_T_07570_SLD_1.1.2.3 linecode=OH-CU_3C_1/0 length=125 units=ft
New Line.SL_4695030E-ABC-1_1 phases=3 bus1=X_4695030E_T_07570.1.2.3 bus2=X_4695030E_T_07570_SLD_1.1.2.3 linecode=OH-CU_3C_1/0 length=125 units=ft
New Line.SL_4694280E-ABC-1_1 phases=3 bus1=X_4694280E_T_07570.1.2.3 bus2=X_4694280E_T_07570_SLD_1.1.2.3 linecode=OH-CU_3C_1/0 length=125 units=ft
New Line.SL_1807900E_07570$1807900E_T_0757-1-A-1_1 phases=3 bus1=X_1807900E_T_07570.1 bus2=X_1807900E_T_07570_SLD_1.1 linecode=OH-CU_3C_1/0 length=125 units=ft
New Line.SL_1807900E_07570$1807900E_T_0757-1-B-1_1 phases=3 bus1=X_1807900E_T_07570.2 bus2=X_1807900E_T_07570_SLD_1.2 linecode=OH-CU_3C_1/0 length=125 units=ft
New Line.SL_1807900E_07570$1807900E_T_0757-1-C-1_1 phases=3 bus1=X_1807900E_T_07570.3 bus2=X_1807900E_T_07570_SLD_1.3 linecode=OH-CU_3C_1/0 length=125 units=ft
New Line.SL_1340496E_07570$1340496E_T_0757-1-A-1_1 phases=3 bus1=X_1340496E_T_07570.1 bus2=X_1340496E_T_07570_SLD_1.1 linecode=OH-CU_3C_1/0 length=125 units=ft
New Line.SL_1340496E_07570$1340496E_T_0757-1-B-1_1 phases=3 bus1=X_1340496E_T_07570.2 bus2=X_1340496E_T_07570_SLD_1.2 linecode=OH-CU_3C_1/0 length=125 units=ft
New Line.SL_1340496E_07570$1340496E_T_0757-1-C-1_1 phases=3 bus1=X_1340496E_T_07570.3 bus2=X_1340496E_T_07570_SLD_1.3 linecode=OH-CU_3C_1/0 length=125 units=ft
New Line.SL_1636824E-ABC-1_1 phases=3 bus1=X_1636824E_T_07570.1.2.3 bus2=X_1636824E_T_07570_SLD_1.1.2.3 linecode=OH-CU_3C_1/0 length=125 units=ft
New Line.SL_1982338E_07570$1982338E_T_0757-1-A-1_1 phases=3 bus1=X_1982338E_T_07570.1 bus2=X_1982338E_T_07570_SLD_1.1 linecode=OH-CU_3C_1/0 length=125 units=ft
New Line.SL_1982338E_07570$1982338E_T_0757-1-B-1_1 phases=3 bus1=X_1982338E_T_07570.2 bus2=X_1982338E_T_07570_SLD_1.2 linecode=OH-CU_3C_1/0 length=125 units=ft
New Line.SL_1982338E_07570$1982338E_T_0757-1-C-1_1 phases=3 bus1=X_1982338E_T_07570.3 bus2=X_1982338E_T_07570_SLD_1.3 linecode=OH-CU_3C_1/0 length=125 units=ft
New Line.SL_4362819E-ABC-1_1 phases=3 bus1=X_4362819E_T_07570.1.2.3 bus2=X_4362819E_T_07570_SLD_1.1.2.3 linecode=OH-CU_3C_1/0 length=125 units=ft
New Line.SL_4505903E_07570$4505903E_T_0757-1-A-1_1 phases=3 bus1=X_4505903E_T_07570.1 bus2=X_4505903E_T_07570_SLD_1.1 linecode=OH-CU_3C_1/0 length=125 units=ft
New Line.SL_4505903E_07570$4505903E_T_0757-1-B-1_1 phases=3 bus1=X_4505903E_T_07570.2 bus2=X_4505903E_T_07570_SLD_1.2 linecode=OH-CU_3C_1/0 length=125 units=ft
New Line.SL_4505903E_07570$4505903E_T_0757-1-C-1_1 phases=3 bus1=X_4505903E_T_07570.3 bus2=X_4505903E_T_07570_SLD_1.3 linecode=OH-CU_3C_1/0 length=125 units=ft
New Line.SL_4368659E-ABC-1_1 phases=3 bus1=X_4368659E_T_07570.1.2.3 bus2=X_4368659E_T_07570_SLD_1.1.2.3 linecode=OH-CU_3C_1/0 length=125 units=ft
New Line.SL_4180602E-ABC-1_1 phases=3 bus1=X_4180602E_T_07570.1.2.3 bus2=X_4180602E_T_07570_SLD_1.1.2.3 linecode=OH-CU_3C_1/0 length=125 units=ft
New Line.SL_1763646E-ABC-1_1 phases=3 bus1=X_1763646E_T_07570.1.2.3 bus2=X_1763646E_T_07570_SLD_1.1.2.3 linecode=OH-CU_3C_1/0 length=125 units=ft
New Line.SL_4477501E-ABC-1_1 phases=3 bus1=X_4477501E_T_07570.1.2.3 bus2=X_4477501E_T_07570_SLD_1.1.2.3 linecode=OH-CU_3C_1/0 length=125 units=ft
New Line.SL_4699973E_07570$4699973E_T_0757-1-A-1_1 phases=3 bus1=X_4699973E_T_07570.1 bus2=X_4699973E_T_07570_SLD_1.1 linecode=OH-CU_3C_1/0 length=125 units=ft
New Line.SL_4699973E_07570$4699973E_T_0757-1-B-1_1 phases=3 bus1=X_4699973E_T_07570.2 bus2=X_4699973E_T_07570_SLD_1.2 linecode=OH-CU_3C_1/0 length=125 units=ft
New Line.SL_4699973E_07570$4699973E_T_0757-1-C-1_1 phases=3 bus1=X_4699973E_T_07570.3 bus2=X_4699973E_T_07570_SLD_1.3 linecode=OH-CU_3C_1/0 length=125 units=ft
New Line.SL_4540721E-ABC-1_1 phases=3 bus1=X_4540721E_T_07570.1.2.3 bus2=X_4540721E_T_07570_SLD_1.1.2.3 linecode=OH-CU_3C_1/0 length=125 units=ft
New Line.SL_P5403116-ABC-1_1 phases=3 bus1=X_P5403116_T_07570.1.2.3 bus2=X_P5403116_T_07570_SLD_1.1.2.3 linecode=OH-CU_3C_1/0 length=125 units=ft
New Line.SL_P5403116-ABC-1_2 phases=3 bus1=X_P5403116_T_07570.1.2.3 bus2=X_P5403116_T_07570_SLD_2.1.2.3 linecode=OH-CU_3C_1/0 length=125 units=ft
New Line.SL_1982073E_07570$1982073E_T_0757-1-A-1_1 phases=3 bus1=X_1982073E_T_07570.1 bus2=X_1982073E_T_07570_SLD_1.1 linecode=OH-CU_3C_1/0 length=125 units=ft
New Line.SL_1982073E_07570$1982073E_T_0757-1-B-1_1 phases=3 bus1=X_1982073E_T_07570.2 bus2=X_1982073E_T_07570_SLD_1.2 linecode=OH-CU_3C_1/0 length=125 units=ft
New Line.SL_1982073E_07570$1982073E_T_0757-1-C-1_1 phases=3 bus1=X_1982073E_T_07570.3 bus2=X_1982073E_T_07570_SLD_1.3 linecode=OH-CU_3C_1/0 length=125 units=ft
New Line.SL_4099194E-ABC-1_1 phases=3 bus1=X_4099194E_T_07570.1.2.3 bus2=X_4099194E_T_07570_SLD_1.1.2.3 linecode=OH-CU_3C_1/0 length=125 units=ft
New Line.SL_4658388E-ABC-1_1 phases=3 bus1=X_4658388E_T_07570.1.2.3 bus2=X_4658388E_T_07570_SLD_1.1.2.3 linecode=OH-CU_3C_1/0 length=125 units=ft
New Line.SL_4658388E-ABC-1_2 phases=3 bus1=X_4658388E_T_07570.1.2.3 bus2=X_4658388E_T_07570_SLD_2.1.2.3 linecode=OH-CU_3C_1/0 length=125 units=ft
New Line.SL_4477301E_07570$4477301E_T_0757-1-A-1_1 phases=3 bus1=X_4477301E_T_07570.1 bus2=X_4477301E_T_07570_SLD_1.1 linecode=OH-CU_3C_1/0 length=125 units=ft
New Line.SL_4477301E_07570$4477301E_T_0757-1-B-1_1 phases=3 bus1=X_4477301E_T_07570.2 bus2=X_4477301E_T_07570_SLD_1.2 linecode=OH-CU_3C_1/0 length=125 units=ft
New Line.SL_4477301E_07570$4477301E_T_0757-1-C-1_1 phases=3 bus1=X_4477301E_T_07570.3 bus2=X_4477301E_T_07570_SLD_1.3 linecode=OH-CU_3C_1/0 length=125 units=ft
New Line.SL_4780491E-ABC-1_1 phases=3 bus1=X_4780491E_T_07570.1.2.3 bus2=X_4780491E_T_07570_SLD_1.1.2.3 linecode=OH-CU_3C_1/0 length=125 units=ft
New Line.SL_458811E_07570$458811E_T_07570-1-A-1_1 phases=3 bus1=X_458811E_T_07570.1 bus2=X_458811E_T_07570_SLD_1.1 linecode=OH-CU_3C_1/0 length=125 units=ft
New Line.SL_458811E_07570$458811E_T_07570-1-B-1_1 phases=3 bus1=X_458811E_T_07570.2 bus2=X_458811E_T_07570_SLD_1.2 linecode=OH-CU_3C_1/0 length=125 units=ft
New Line.SL_458811E_07570$458811E_T_07570-1-C-1_1 phases=3 bus1=X_458811E_T_07570.3 bus2=X_458811E_T_07570_SLD_1.3 linecode=OH-CU_3C_1/0 length=125 units=ft
New Line.SL_4552982E_07570$4552982E_T_0757-1-A-1_1 phases=3 bus1=X_4552982E_T_07570.1 bus2=X_4552982E_T_07570_SLD_1.1 linecode=OH-CU_3C_1/0 length=125 units=ft
New Line.SL_4552982E_07570$4552982E_T_0757-1-B-1_1 phases=3 bus1=X_4552982E_T_07570.2 bus2=X_4552982E_T_07570_SLD_1.2 linecode=OH-CU_3C_1/0 length=125 units=ft
New Line.SL_4552982E_07570$4552982E_T_0757-1-C-1_1 phases=3 bus1=X_4552982E_T_07570.3 bus2=X_4552982E_T_07570_SLD_1.3 linecode=OH-CU_3C_1/0 length=125 units=ft
New Line.SL_766011E-ABC-1_1 phases=3 bus1=X_766011E_T_07570.1.2.3 bus2=X_766011E_T_07570_SLD_1.1.2.3 linecode=OH-CU_3C_1/0 length=125 units=ft
New Line.SL_2093143E_07570$2093143E_T_0757-1-A-1_1 phases=3 bus1=X_2093143E_T_07570.1 bus2=X_2093143E_T_07570_SLD_1.1 linecode=OH-CU_3C_1/0 length=125 units=ft
New Line.SL_2093143E_07570$2093143E_T_0757-1-B-1_1 phases=3 bus1=X_2093143E_T_07570.2 bus2=X_2093143E_T_07570_SLD_1.2 linecode=OH-CU_3C_1/0 length=125 units=ft
New Line.SL_2093143E_07570$2093143E_T_0757-1-C-1_1 phases=3 bus1=X_2093143E_T_07570.3 bus2=X_2093143E_T_07570_SLD_1.3 linecode=OH-CU_3C_1/0 length=125 units=ft
New Line.SL_4540498E_07570$4540498E_T_0757-1-A-1_1 phases=3 bus1=X_4540498E_T_07570.1 bus2=X_4540498E_T_07570_SLD_1.1 linecode=OH-CU_3C_1/0 length=125 units=ft
New Line.SL_4540498E_07570$4540498E_T_0757-1-B-1_1 phases=3 bus1=X_4540498E_T_07570.2 bus2=X_4540498E_T_07570_SLD_1.2 linecode=OH-CU_3C_1/0 length=125 units=ft
New Line.SL_4540498E_07570$4540498E_T_0757-1-C-1_1 phases=3 bus1=X_4540498E_T_07570.3 bus2=X_4540498E_T_07570_SLD_1.3 linecode=OH-CU_3C_1/0 length=125 units=ft
New Line.SL_4368160E-ABC-1_1 phases=3 bus1=X_4368160E_T_07570.1.2.3 bus2=X_4368160E_T_07570_SLD_1.1.2.3 linecode=OH-CU_3C_1/0 length=125 units=ft
New Line.SL_837633E-ABC-1_1 phases=3 bus1=X_837633E_T_07570.1.2.3 bus2=X_837633E_T_07570_SLD_1.1.2.3 linecode=OH-CU_3C_1/0 length=125 units=ft
New Line.SL_X15001E-ABC-1_1 phases=3 bus1=X_X15001E_T_07570.1.2.3 bus2=X_X15001E_T_07570_SLD_1.1.2.3 linecode=OH-CU_3C_1/0 length=125 units=ft
New Line.SL_2286962E-ABC-1_1 phases=3 bus1=X_2286962E_T_07570.1.2.3 bus2=X_2286962E_T_07570_SLD_1.1.2.3 linecode=OH-CU_3C_1/0 length=125 units=ft
New Line.SL_744583E-ABC-1_1 phases=3 bus1=X_744583E_T_07570.1.2.3 bus2=X_744583E_T_07570_SLD_1.1.2.3 linecode=OH-CU_3C_1/0 length=125 units=ft
New Line.SL_4659046E_07570$4659046E_T_0757-1-A-1_1 phases=3 bus1=X_4659046E_T_07570.1 bus2=X_4659046E_T_07570_SLD_1.1 linecode=OH-CU_3C_1/0 length=125 units=ft
New Line.SL_4661652E_07570$4661652E_T_0757-1-A-1_1 phases=3 bus1=X_4661652E_T_07570.1 bus2=X_4661652E_T_07570_SLD_1.1 linecode=OH-CU_3C_1/0 length=125 units=ft
New Line.SL_4661652E_07570$4661652E_T_0757-1-B-1_1 phases=3 bus1=X_4661652E_T_07570.2 bus2=X_4661652E_T_07570_SLD_1.2 linecode=OH-CU_3C_1/0 length=125 units=ft
New Line.SL_4661652E_07570$4661652E_T_0757-1-C-1_1 phases=3 bus1=X_4661652E_T_07570.3 bus2=X_4661652E_T_07570_SLD_1.3 linecode=OH-CU_3C_1/0 length=125 units=ft
New Line.SL_4001837E-ABC-1_1 phases=3 bus1=X_4001837E_T_07570.1.2.3 bus2=X_4001837E_T_07570_SLD_1.1.2.3 linecode=OH-CU_3C_1/0 length=125 units=ft
New Line.SL_4289382E-ABC-1_1 phases=3 bus1=X_4289382E_T_07570.1.2.3 bus2=X_4289382E_T_07570_SLD_1.1.2.3 linecode=OH-CU_3C_1/0 length=125 units=ft
New Line.SL_P5476178-1_T_07570$P5476178_T_-1-A-1_1 phases=3 bus1=X_P5476178_T_07570.1 bus2=X_P5476178_T_07570_SLD_1.1 linecode=OH-CU_3C_1/0 length=125 units=ft
New Line.SL_P5476178-1_T_07570$P5476178_T_-1-B-1_1 phases=3 bus1=X_P5476178_T_07570.2 bus2=X_P5476178_T_07570_SLD_1.2 linecode=OH-CU_3C_1/0 length=125 units=ft
New Line.SL_P5476178-1_T_07570$P5476178_T_-1-C-1_1 phases=3 bus1=X_P5476178_T_07570.3 bus2=X_P5476178_T_07570_SLD_1.3 linecode=OH-CU_3C_1/0 length=125 units=ft
New Line.SL_4632242E-ABC-1_1 phases=3 bus1=X_4632242E_T_07570.1.2.3 bus2=X_4632242E_T_07570_SLD_1.1.2.3 linecode=OH-CU_3C_1/0 length=125 units=ft
New Line.SL_4368670E-ABC-1_1 phases=3 bus1=X_4368670E_T_07570.1.2.3 bus2=X_4368670E_T_07570_SLD_1.1.2.3 linecode=OH-CU_3C_1/0 length=125 units=ft
New Line.SL_4368668E-ABC-1_1 phases=3 bus1=X_4368668E_T_07570.1.2.3 bus2=X_4368668E_T_07570_SLD_1.1.2.3 linecode=OH-CU_3C_1/0 length=125 units=ft
New Line.SL_4661656E_07570$4661656E_T_0757-1-A-1_1 phases=3 bus1=X_4661656E_T_07570.1 bus2=X_4661656E_T_07570_SLD_1.1 linecode=OH-CU_3C_1/0 length=125 units=ft
New Line.SL_4661656E_07570$4661656E_T_0757-1-B-1_1 phases=3 bus1=X_4661656E_T_07570.2 bus2=X_4661656E_T_07570_SLD_1.2 linecode=OH-CU_3C_1/0 length=125 units=ft
New Line.SL_4661656E_07570$4661656E_T_0757-1-C-1_1 phases=3 bus1=X_4661656E_T_07570.3 bus2=X_4661656E_T_07570_SLD_1.3 linecode=OH-CU_3C_1/0 length=125 units=ft
New Line.SL_1807861E-ABC-1_1 phases=3 bus1=X_1807861E_T_07570.1.2.3 bus2=X_1807861E_T_07570_SLD_1.1.2.3 linecode=OH-CU_3C_1/0 length=125 units=ft
New Line.SL_P5393566-ABC-1_1 phases=3 bus1=X_P5393566_T_07570.1.2.3 bus2=X_P5393566_T_07570_SLD_1.1.2.3 linecode=OH-CU_3C_1/0 length=125 units=ft
New Line.SL_1254567E-ABC-1_1 phases=3 bus1=X_1254567E_T_07570.1.2.3 bus2=X_1254567E_T_07570_SLD_1.1.2.3 linecode=OH-CU_3C_1/0 length=125 units=ft
New Line.SL_4289368E_07570$4289368E_T_0757-1-A-1_1 phases=3 bus1=X_4289368E_T_07570.1 bus2=X_4289368E_T_07570_SLD_1.1 linecode=OH-CU_3C_1/0 length=125 units=ft
New Line.SL_4289368E_07570$4289368E_T_0757-1-B-1_1 phases=3 bus1=X_4289368E_T_07570.2 bus2=X_4289368E_T_07570_SLD_1.2 linecode=OH-CU_3C_1/0 length=125 units=ft
New Line.SL_4289368E_07570$4289368E_T_0757-1-C-1_1 phases=3 bus1=X_4289368E_T_07570.3 bus2=X_4289368E_T_07570_SLD_1.3 linecode=OH-CU_3C_1/0 length=125 units=ft
New Line.SL_4669184E-ABC-1_1 phases=3 bus1=X_4669184E_T_07570.1.2.3 bus2=X_4669184E_T_07570_SLD_1.1.2.3 linecode=OH-CU_3C_1/0 length=125 units=ft
New Line.SL_1434873E-ABC-1_1 phases=3 bus1=X_1434873E_T_07570.1.2.3 bus2=X_1434873E_T_07570_SLD_1.1.2.3 linecode=OH-CU_3C_1/0 length=125 units=ft
New Line.SL_974521E-ABC-1_1 phases=3 bus1=X_974521E_T_07570.1.2.3 bus2=X_974521E_T_07570_SLD_1.1.2.3 linecode=OH-CU_3C_1/0 length=125 units=ft
New Line.SL_4540963E_07570$4540963E_T_0757-1-A-1_1 phases=3 bus1=X_4540963E_T_07570.1 bus2=X_4540963E_T_07570_SLD_1.1 linecode=OH-CU_3C_1/0 length=125 units=ft
New Line.SL_4540963E_07570$4540963E_T_0757-1-B-1_1 phases=3 bus1=X_4540963E_T_07570.2 bus2=X_4540963E_T_07570_SLD_1.2 linecode=OH-CU_3C_1/0 length=125 units=ft
New Line.SL_4540963E_07570$4540963E_T_0757-1-C-1_1 phases=3 bus1=X_4540963E_T_07570.3 bus2=X_4540963E_T_07570_SLD_1.3 linecode=OH-CU_3C_1/0 length=125 units=ft
New Line.SL_4368663E-ABC-1_1 phases=3 bus1=X_4368663E_T_07570.1.2.3 bus2=X_4368663E_T_07570_SLD_1.1.2.3 linecode=OH-CU_3C_1/0 length=125 units=ft
New Line.SL_4276440E_07570$4276440E_T_0757-1-A-1_1 phases=3 bus1=X_4276440E_T_07570.1 bus2=X_4276440E_T_07570_SLD_1.1 linecode=OH-CU_3C_1/0 length=125 units=ft
New Line.SL_4276440E_07570$4276440E_T_0757-1-B-1_1 phases=3 bus1=X_4276440E_T_07570.2 bus2=X_4276440E_T_07570_SLD_1.2 linecode=OH-CU_3C_1/0 length=125 units=ft
New Line.SL_4276440E_07570$4276440E_T_0757-1-C-1_1 phases=3 bus1=X_4276440E_T_07570.3 bus2=X_4276440E_T_07570_SLD_1.3 linecode=OH-CU_3C_1/0 length=125 units=ft
New Line.SL_4026131E-ABC-1_1 phases=3 bus1=X_4026131E_T_07570.1.2.3 bus2=X_4026131E_T_07570_SLD_1.1.2.3 linecode=OH-CU_3C_1/0 length=125 units=ft
New Line.SL_4354639E_07570$4354639E_T_0757-1-A-1_1 phases=3 bus1=X_4354639E_T_07570.1 bus2=X_4354639E_T_07570_SLD_1.1 linecode=OH-CU_3C_1/0 length=125 units=ft
New Line.SL_4354639E_07570$4354639E_T_0757-1-B-1_1 phases=3 bus1=X_4354639E_T_07570.2 bus2=X_4354639E_T_07570_SLD_1.2 linecode=OH-CU_3C_1/0 length=125 units=ft
New Line.SL_4354639E_07570$4354639E_T_0757-1-C-1_1 phases=3 bus1=X_4354639E_T_07570.3 bus2=X_4354639E_T_07570_SLD_1.3 linecode=OH-CU_3C_1/0 length=125 units=ft
New Line.SL_4659046E_07570$4659046E_T_0757-1-B-1_1 phases=3 bus1=X_4659046E_T_07570.2 bus2=X_4659046E_T_07570_SLD_1.2 linecode=OH-CU_3C_1/0 length=125 units=ft
New Line.SL_4659046E_07570$4659046E_T_0757-1-C-1_1 phases=3 bus1=X_4659046E_T_07570.3 bus2=X_4659046E_T_07570_SLD_1.3 linecode=OH-CU_3C_1/0 length=125 units=ft
New Line.SL_4368157E-ABC-1_1 phases=3 bus1=X_4368157E_T_07570.1.2.3 bus2=X_4368157E_T_07570_SLD_1.1.2.3 linecode=OH-CU_3C_1/0 length=125 units=ft
New Line.SL_4252648E-ABC-1_1 phases=3 bus1=X_4252648E_T_07570.1.2.3 bus2=X_4252648E_T_07570_SLD_1.1.2.3 linecode=OH-CU_3C_1/0 length=125 units=ft
New Line.SL_755716E-A-1_1 phases=1 bus1=X_755716E_T_07570.1 bus2=X_755716E_T_07570_SLD_1.1 linecode=1/0_AL_TRIPLEX_1PH length=125 units=ft
New Line.SL_4316552ET-ABC-1_1 phases=3 bus1=X_4316552ET_T_07570.1.2.3 bus2=X_4316552ET_T_07570_SLD_1.1.2.3 linecode=OH-CU_3C_1/0 length=125 units=ft
New Line.SL_4316552ET-ABC-1_2 phases=3 bus1=X_4316552ET_T_07570.1.2.3 bus2=X_4316552ET_T_07570_SLD_2.1.2.3 linecode=OH-CU_3C_1/0 length=125 units=ft
New Line.SL_4553240E_07570$4553240E_T_0757-1-A-1_1 phases=3 bus1=X_4553240E_T_07570.1 bus2=X_4553240E_T_07570_SLD_1.1 linecode=OH-CU_3C_1/0 length=125 units=ft
New Line.SL_4553240E_07570$4553240E_T_0757-1-B-1_1 phases=3 bus1=X_4553240E_T_07570.2 bus2=X_4553240E_T_07570_SLD_1.2 linecode=OH-CU_3C_1/0 length=125 units=ft
New Line.SL_4553240E_07570$4553240E_T_0757-1-C-1_1 phases=3 bus1=X_4553240E_T_07570.3 bus2=X_4553240E_T_07570_SLD_1.3 linecode=OH-CU_3C_1/0 length=125 units=ft
New Line.SL_4553227E-ABC-1_1 phases=3 bus1=X_4553227E_T_07570.1.2.3 bus2=X_4553227E_T_07570_SLD_1.1.2.3 linecode=OH-CU_3C_1/0 length=125 units=ft
New Line.SL_4696734E-ABC-1_1 phases=3 bus1=X_4696734E_T_07570.1.2.3 bus2=X_4696734E_T_07570_SLD_1.1.2.3 linecode=OH-CU_3C_1/0 length=125 units=ft
New Line.SL_4696734E-ABC-1_2 phases=3 bus1=X_4696734E_T_07570.1.2.3 bus2=X_4696734E_T_07570_SLD_2.1.2.3 linecode=OH-CU_3C_1/0 length=125 units=ft
New Line.SL_4772512E_07570$4772512E_T_0757-1-A-1_1 phases=3 bus1=X_4772512E_T_07570.1 bus2=X_4772512E_T_07570_SLD_1.1 linecode=OH-CU_3C_1/0 length=125 units=ft
New Line.SL_4772512E_07570$4772512E_T_0757-1-B-1_1 phases=3 bus1=X_4772512E_T_07570.2 bus2=X_4772512E_T_07570_SLD_1.2 linecode=OH-CU_3C_1/0 length=125 units=ft
New Line.SL_4772512E_07570$4772512E_T_0757-1-C-1_1 phases=3 bus1=X_4772512E_T_07570.3 bus2=X_4772512E_T_07570_SLD_1.3 linecode=OH-CU_3C_1/0 length=125 units=ft
New Line.SL_4362821E-ABC-1_1 phases=3 bus1=X_4362821E_T_07570.1.2.3 bus2=X_4362821E_T_07570_SLD_1.1.2.3 linecode=OH-CU_3C_1/0 length=125 units=ft
New Line.SL_2093101E_07570$2093101E_T_0757-1-A-1_1 phases=1 bus1=X_2093101E_T_07570.1 bus2=X_2093101E_T_07570_SLD_1.1 linecode=1/0_AL_TRIPLEX_1PH length=125 units=ft
New Line.SL_4363394E_07570$4363394E_T_0757-1-A-1_1 phases=3 bus1=X_4363394E_T_07570.1 bus2=X_4363394E_T_07570_SLD_1.1 linecode=OH-CU_3C_1/0 length=125 units=ft
New Line.SL_4363394E_07570$4363394E_T_0757-1-B-1_1 phases=3 bus1=X_4363394E_T_07570.2 bus2=X_4363394E_T_07570_SLD_1.2 linecode=OH-CU_3C_1/0 length=125 units=ft
New Line.SL_4363394E_07570$4363394E_T_0757-1-C-1_1 phases=3 bus1=X_4363394E_T_07570.3 bus2=X_4363394E_T_07570_SLD_1.3 linecode=OH-CU_3C_1/0 length=125 units=ft
New Line.SL_2111258E_07570$2111258E_T_0757-1-A-1_1 phases=3 bus1=X_2111258E_T_07570.1 bus2=X_2111258E_T_07570_SLD_1.1 linecode=OH-CU_3C_1/0 length=125 units=ft
New Line.SL_2111258E_07570$2111258E_T_0757-1-B-1_1 phases=3 bus1=X_2111258E_T_07570.2 bus2=X_2111258E_T_07570_SLD_1.2 linecode=OH-CU_3C_1/0 length=125 units=ft
New Line.SL_2111258E_07570$2111258E_T_0757-1-C-1_1 phases=3 bus1=X_2111258E_T_07570.3 bus2=X_2111258E_T_07570_SLD_1.3 linecode=OH-CU_3C_1/0 length=125 units=ft
New Line.SL_1982078E_07570$1982078E_T_0757-1-A-1_1 phases=3 bus1=X_1982078E_T_07570.1 bus2=X_1982078E_T_07570_SLD_1.1 linecode=OH-CU_3C_1/0 length=125 units=ft
New Line.SL_1982078E_07570$1982078E_T_0757-1-B-1_1 phases=3 bus1=X_1982078E_T_07570.2 bus2=X_1982078E_T_07570_SLD_1.2 linecode=OH-CU_3C_1/0 length=125 units=ft
New Line.SL_1982078E_07570$1982078E_T_0757-1-C-1_1 phases=3 bus1=X_1982078E_T_07570.3 bus2=X_1982078E_T_07570_SLD_1.3 linecode=OH-CU_3C_1/0 length=125 units=ft
New Line.SL_4364055E_07570$4364055E_T_0757-1-A-1_1 phases=3 bus1=X_4364055E_T_07570.1 bus2=X_4364055E_T_07570_SLD_1.1 linecode=OH-CU_3C_1/0 length=125 units=ft
New Line.SL_4364055E_07570$4364055E_T_0757-1-B-1_1 phases=3 bus1=X_4364055E_T_07570.2 bus2=X_4364055E_T_07570_SLD_1.2 linecode=OH-CU_3C_1/0 length=125 units=ft
New Line.SL_4364055E_07570$4364055E_T_0757-1-C-1_1 phases=3 bus1=X_4364055E_T_07570.3 bus2=X_4364055E_T_07570_SLD_1.3 linecode=OH-CU_3C_1/0 length=125 units=ft
New Line.SL_4226560E-ABC-1_1 phases=3 bus1=X_4226560E_T_07570.1.2.3 bus2=X_4226560E_T_07570_SLD_1.1.2.3 linecode=OH-CU_3C_1/0 length=125 units=ft
New Line.SL_1406796E-ABC-1_1 phases=3 bus1=X_1406796E_T_07570.1.2.3 bus2=X_1406796E_T_07570_SLD_1.1.2.3 linecode=OH-CU_3C_1/0 length=125 units=ft
New Line.SL_1406796E-ABC-1_2 phases=3 bus1=X_1406796E_T_07570.1.2.3 bus2=X_1406796E_T_07570_SLD_2.1.2.3 linecode=OH-CU_3C_1/0 length=125 units=ft
New Line.SL_4553230E-ABC-1_1 phases=3 bus1=X_4553230E_T_07570.1.2.3 bus2=X_4553230E_T_07570_SLD_1.1.2.3 linecode=OH-CU_3C_1/0 length=125 units=ft
New Line.SL_4026373E-ABC-1_1 phases=3 bus1=X_4026373E_T_07570.1.2.3 bus2=X_4026373E_T_07570_SLD_1.1.2.3 linecode=OH-CU_3C_1/0 length=125 units=ft
New Line.SL_4632239E-ABC-1_1 phases=3 bus1=X_4632239E_T_07570.1.2.3 bus2=X_4632239E_T_07570_SLD_1.1.2.3 linecode=OH-CU_3C_1/0 length=125 units=ft
New Line.SL_P5456297-A-1_1 phases=1 bus1=X_P5456297_T_07570.1 bus2=X_P5456297_T_07570_SLD_1.1 linecode=1/0_AL_TRIPLEX_1PH length=125 units=ft
New Line.SL_P5372742-ABC-1_1 phases=3 bus1=X_P5372742_T_07570.1.2.3 bus2=X_P5372742_T_07570_SLD_1.1.2.3 linecode=OH-CU_3C_1/0 length=125 units=ft
New Line.SL_2024837E_07570$2024837E_T_0757-1-A-1_1 phases=3 bus1=X_2024837E_T_07570.1 bus2=X_2024837E_T_07570_SLD_1.1 linecode=OH-CU_3C_1/0 length=125 units=ft
New Line.SL_2024837E_07570$2024837E_T_0757-1-B-1_1 phases=3 bus1=X_2024837E_T_07570.2 bus2=X_2024837E_T_07570_SLD_1.2 linecode=OH-CU_3C_1/0 length=125 units=ft
New Line.SL_2024837E_07570$2024837E_T_0757-1-C-1_1 phases=3 bus1=X_2024837E_T_07570.3 bus2=X_2024837E_T_07570_SLD_1.3 linecode=OH-CU_3C_1/0 length=125 units=ft
New Line.SL_1851663E_07570$1851663E_T_0757-1-A-1_1 phases=3 bus1=X_1851663E_T_07570.1 bus2=X_1851663E_T_07570_SLD_1.1 linecode=OH-CU_3C_1/0 length=125 units=ft
New Line.SL_1851663E_07570$1851663E_T_0757-1-B-1_1 phases=3 bus1=X_1851663E_T_07570.2 bus2=X_1851663E_T_07570_SLD_1.2 linecode=OH-CU_3C_1/0 length=125 units=ft
New Line.SL_1851663E_07570$1851663E_T_0757-1-C-1_1 phases=3 bus1=X_1851663E_T_07570.3 bus2=X_1851663E_T_07570_SLD_1.3 linecode=OH-CU_3C_1/0 length=125 units=ft
New Line.SL_4362820E-ABC-1_1 phases=3 bus1=X_4362820E_T_07570.1.2.3 bus2=X_4362820E_T_07570_SLD_1.1.2.3 linecode=OH-CU_3C_1/0 length=125 units=ft
New Line.SL_4700793E-ABC-1_1 phases=3 bus1=X_4700793E_T_07570.1.2.3 bus2=X_4700793E_T_07570_SLD_1.1.2.3 linecode=OH-CU_3C_1/0 length=125 units=ft
New Line.SL_4700793E-ABC-1_2 phases=3 bus1=X_4700793E_T_07570.1.2.3 bus2=X_4700793E_T_07570_SLD_2.1.2.3 linecode=OH-CU_3C_1/0 length=125 units=ft
New Line.SL_4037849E-ABC-1_1 phases=3 bus1=X_4037849E_T_07570.1.2.3 bus2=X_4037849E_T_07570_SLD_1.1.2.3 linecode=OH-CU_3C_1/0 length=125 units=ft
New Line.SL_P5618240-ABC-1_1 phases=3 bus1=X_P5618240_T_07570.1.2.3 bus2=X_P5618240_T_07570_SLD_1.1.2.3 linecode=OH-CU_3C_1/0 length=125 units=ft
New Line.SL_P5618240-ABC-1_2 phases=3 bus1=X_P5618240_T_07570.1.2.3 bus2=X_P5618240_T_07570_SLD_2.1.2.3 linecode=OH-CU_3C_1/0 length=125 units=ft
New Line.SL_P5618240-ABC-1_3 phases=3 bus1=X_P5618240_T_07570.1.2.3 bus2=X_P5618240_T_07570_SLD_3.1.2.3 linecode=OH-CU_3C_1/0 length=125 units=ft
New Line.SL_B5372741-ABC-1_1 phases=3 bus1=X_B5372741_T_07570.1.2.3 bus2=X_B5372741_T_07570_SLD_1.1.2.3 linecode=OH-CU_3C_1/0 length=125 units=ft
New Line.SL_2288841E_07570$2288841E_T_0757-1-A-1_1 phases=3 bus1=X_2288841E_T_07570.1 bus2=X_2288841E_T_07570_SLD_1.1 linecode=OH-CU_3C_1/0 length=125 units=ft
New Line.SL_2288841E_07570$2288841E_T_0757-1-B-1_1 phases=3 bus1=X_2288841E_T_07570.2 bus2=X_2288841E_T_07570_SLD_1.2 linecode=OH-CU_3C_1/0 length=125 units=ft
New Line.SL_2288841E_07570$2288841E_T_0757-1-C-1_1 phases=3 bus1=X_2288841E_T_07570.3 bus2=X_2288841E_T_07570_SLD_1.3 linecode=OH-CU_3C_1/0 length=125 units=ft
New Line.SL_2125310E_07570$2125310E_T_0757-1-A-1_1 phases=3 bus1=X_2125310E_T_07570.1 bus2=X_2125310E_T_07570_SLD_1.1 linecode=OH-CU_3C_1/0 length=125 units=ft
New Line.SL_2125310E_07570$2125310E_T_0757-1-B-1_1 phases=3 bus1=X_2125310E_T_07570.2 bus2=X_2125310E_T_07570_SLD_1.2 linecode=OH-CU_3C_1/0 length=125 units=ft
New Line.SL_2125310E_07570$2125310E_T_0757-1-C-1_1 phases=3 bus1=X_2125310E_T_07570.3 bus2=X_2125310E_T_07570_SLD_1.3 linecode=OH-CU_3C_1/0 length=125 units=ft
New Line.SL_591841E_07570$591841E_T_07570-1-A-1_1 phases=3 bus1=X_591841E_T_07570.1 bus2=X_591841E_T_07570_SLD_1.1 linecode=OH-CU_3C_1/0 length=125 units=ft
New Line.SL_591841E_07570$591841E_T_07570-1-B-1_1 phases=3 bus1=X_591841E_T_07570.2 bus2=X_591841E_T_07570_SLD_1.2 linecode=OH-CU_3C_1/0 length=125 units=ft
New Line.SL_591841E_07570$591841E_T_07570-1-C-1_1 phases=3 bus1=X_591841E_T_07570.3 bus2=X_591841E_T_07570_SLD_1.3 linecode=OH-CU_3C_1/0 length=125 units=ft
New Line.SL_P5476190-ABC-1_1 phases=3 bus1=X_P5476190_T_07570.1.2.3 bus2=X_P5476190_T_07570_SLD_1.1.2.3 linecode=OH-CU_3C_1/0 length=125 units=ft
New Line.SL_P5476190-ABC-1_2 phases=3 bus1=X_P5476190_T_07570.1.2.3 bus2=X_P5476190_T_07570_SLD_2.1.2.3 linecode=OH-CU_3C_1/0 length=125 units=ft
New Line.SL_P5476190-ABC-1_3 phases=3 bus1=X_P5476190_T_07570.1.2.3 bus2=X_P5476190_T_07570_SLD_3.1.2.3 linecode=OH-CU_3C_1/0 length=125 units=ft
New Line.SL_4587530E-ABC-1_1 phases=3 bus1=X_4587530E_T_07570.1.2.3 bus2=X_4587530E_T_07570_SLD_1.1.2.3 linecode=OH-CU_3C_1/0 length=125 units=ft
New Line.SL_4368171E-ABC-1_1 phases=3 bus1=X_4368171E_T_07570.1.2.3 bus2=X_4368171E_T_07570_SLD_1.1.2.3 linecode=OH-CU_3C_1/0 length=125 units=ft
New Line.SL_P5411969-ABC-1_1 phases=3 bus1=X_P5411969_T_07570.1.2.3 bus2=X_P5411969_T_07570_SLD_1.1.2.3 linecode=OH-CU_3C_1/0 length=125 units=ft