New Line.l(r:p2rdt12626lv-p2rlv29460) length=0.00829671 units=km bus1=p2rdt12626lv.1.2 bus2=p2rlv29460.1.2 switch=False enabled=True phases=2 linecode=1p_oh_al_2/0_rucina_2

New Line.l(r:p2rdm29057-p2rlv29459) length=0.0147393 units=km bus1=p2rdm29057.1.2 bus2=p2rlv29459.1.2 switch=False enabled=True phases=2 linecode=1p_oh_al_2/0_rucina_2

New Line.l(r:p2rdm29056-p2rlv29458) length=0.015629 units=km bus1=p2rdm29056.1.2 bus2=p2rlv29458.1.2 switch=False enabled=True phases=2 linecode=1p_oh_al_2/0_rucina_2

New Line.l(r:p2rdm29056-p2rdm29057) length=0.038703 units=km bus1=p2rdm29057.1.2 bus2=p2rdm29056.1.2 switch=False enabled=True phases=2 linecode=1p_oh_al_4/0_zuzara_2

New Line.l(r:p2rdm29057-p2rdt12626lv) length=0.038693 units=km bus1=p2rdt12626lv.1.2 bus2=p2rdm29057.1.2 switch=False enabled=True phases=2 linecode=1p_oh_al_4/0_zuzara_2

New Line.l(r:p2rdm29059-p2rlv29461) length=0.00538535 units=km bus1=p2rdm29059.1.2 bus2=p2rlv29461.1.2 switch=False enabled=True phases=2 linecode=1p_oh_al_2/0_rucina_2

New Line.l(r:p2rdm29059-p2rlv29462) length=0.028347300000000002 units=km bus1=p2rdm29059.1.2 bus2=p2rlv29462.1.2 switch=False enabled=True phases=2 linecode=1p_oh_al_4/0_zuzara_2

New Line.l(r:p2rdm29062-p2rlv29464) length=0.0498019 units=km bus1=p2rdm29062.1.2 bus2=p2rlv29464.1.2 switch=False enabled=True phases=2 linecode=1p_oh_al_4/0_zuzara_2

New Line.l(r:p2rdm29061-p2rlv29463) length=0.0083569 units=km bus1=p2rdm29061.1.2 bus2=p2rlv29463.1.2 switch=False enabled=True phases=2 linecode=1p_oh_al_2/0_rucina_2

New Line.l(r:p2rdm29061-p2rdm29062) length=0.0181422 units=km bus1=p2rdm29062.1.2 bus2=p2rdm29061.1.2 switch=False enabled=True phases=2 linecode=1p_oh_al_2/0_rucina_2

New Line.l(r:p2rdm29059-p2rdm29062) length=0.0181422 units=km bus1=p2rdm29059.1.2 bus2=p2rdm29062.1.2 switch=False enabled=True phases=2 linecode=1p_oh_al_2/0_rucina_2

New Line.l(r:p2rdm29059-p2rdt12626lv) length=0.0193515 units=km bus1=p2rdt12626lv.1.2 bus2=p2rdm29059.1.2 switch=False enabled=True phases=2 linecode=1p_oh_al_2/0_rucina_2

New Line.l(r:p2rdm29063-p2rlv29465) length=0.0362083 units=km bus1=p2rdm29063.1.2 bus2=p2rlv29465.1.2 switch=False enabled=True phases=2 linecode=1p_oh_al_4/0_zuzara_2

New Line.l(r:p2rdm29063-p2rdt12627lv) length=0.0181422 units=km bus1=p2rdt12627lv.1.2 bus2=p2rdm29063.1.2 switch=False enabled=True phases=2 linecode=1p_oh_al_2/0_rucina_2

New Line.l(r:p2rdm29064-p2rlv29466) length=0.0155733 units=km bus1=p2rdm29064.1.2 bus2=p2rlv29466.1.2 switch=False enabled=True phases=2 linecode=1p_oh_al_2/0_rucina_2

New Line.l(r:p2rdm29064-p2rdt12627lv) length=0.0181422 units=km bus1=p2rdt12627lv.1.2 bus2=p2rdm29064.1.2 switch=False enabled=True phases=2 linecode=1p_oh_al_2/0_rucina_2

New Line.l(r:p2rdm29073-p2rlv29475) length=0.0111396 units=km bus1=p2rdm29073.1.2 bus2=p2rlv29475.1.2 switch=False enabled=True phases=2 linecode=1p_oh_al_2/0_rucina_2

New Line.l(r:p2rdm29073-p2rlv29476) length=0.0171644 units=km bus1=p2rdm29073.1.2 bus2=p2rlv29476.1.2 switch=False enabled=True phases=2 linecode=1p_oh_al_2/0_rucina_2

New Line.l(r:p2rdm29073-p2rdt12635lv) length=0.01925 units=km bus1=p2rdt12635lv.1.2 bus2=p2rdm29073.1.2 switch=False enabled=True phases=2 linecode=1p_oh_al_2/0_rucina_2

New Line.l(r:p2rdm29075-p2rlv29477) length=0.04687390000000001 units=km bus1=p2rdm29075.1.2 bus2=p2rlv29477.1.2 switch=False enabled=True phases=2 linecode=1p_oh_al_4/0_zuzara_2

New Line.l(r:p2rdm29075-p2rdt12635lv) length=0.057749600000000005 units=km bus1=p2rdt12635lv.1.2 bus2=p2rdm29075.1.2 switch=False enabled=True phases=2 linecode=1p_oh_al_4/0_zuzara_2

New Line.l(r:p2rdm29076-p2rlv29478) length=0.0127944 units=km bus1=p2rdm29076.1.2 bus2=p2rlv29478.1.2 switch=False enabled=True phases=2 linecode=1p_oh_al_2/0_rucina_2

New Line.l(r:p2rdm29076-p2rdt12636lv) length=0.01925 units=km bus1=p2rdt12636lv.1.2 bus2=p2rdm29076.1.2 switch=False enabled=True phases=2 linecode=1p_oh_al_2/0_rucina_2

New Line.l(r:p2rdm29077-p2rlv30419) length=0.0130899 units=km bus1=p2rdm29077.1.2 bus2=p2rlv30419.1.2 switch=False enabled=True phases=2 linecode=1p_oh_al_2/0_rucina_2

New Line.l(r:p2rdm29077-p2rdt12636lv) length=0.0192497 units=km bus1=p2rdt12636lv.1.2 bus2=p2rdm29077.1.2 switch=False enabled=True phases=2 linecode=1p_oh_al_2/0_rucina_2

New Line.l(r:p2rdt12637lv-p2rlv29479) length=0.0664667 units=km bus1=p2rdt12637lv.1.2 bus2=p2rlv29479.1.2 switch=False enabled=True phases=2 linecode=1p_oh_al_4/0_zuzara_2

New Line.l(r:p2rdt12637lv-p2rlv29480) length=0.08285110000000001 units=km bus1=p2rdt12637lv.1.2 bus2=p2rlv29480.1.2 switch=False enabled=True phases=2 linecode=1p_oh_al_4/0_zuzara_2

New Line.l(r:p2rdm29080-p2rlv29492) length=0.06161040000000001 units=km bus1=p2rdm29080.1.2 bus2=p2rlv29492.1.2 switch=False enabled=True phases=2 linecode=1p_oh_al_4/0_zuzara_2

New Line.l(r:p2rdm29080-p2rdt12637lv) length=0.0192397 units=km bus1=p2rdt12637lv.1.2 bus2=p2rdm29080.1.2 switch=False enabled=True phases=2 linecode=1p_oh_al_2/0_rucina_2

New Line.l(r:p2rdt12638lv-p2rlv29481) length=0.018078700000000003 units=km bus1=p2rdt12638lv.1.2 bus2=p2rlv29481.1.2 switch=False enabled=True phases=2 linecode=1p_oh_al_2/0_rucina_2

New Line.l(r:p2rdt12638lv-p2rlv29482) length=0.0178331 units=km bus1=p2rdt12638lv.1.2 bus2=p2rlv29482.1.2 switch=False enabled=True phases=2 linecode=1p_oh_al_2/0_rucina_2

New Line.l(r:p2rdt12638lv-p2rlv29483) length=0.0236685 units=km bus1=p2rdt12638lv.1.2 bus2=p2rlv29483.1.2 switch=False enabled=True phases=2 linecode=1p_oh_al_2/0_rucina_2

New Line.l(r:p2rdt12638lv-p2rlv29485) length=0.030558000000000002 units=km bus1=p2rdt12638lv.1.2 bus2=p2rlv29485.1.2 switch=False enabled=True phases=2 linecode=1p_oh_al_4/0_zuzara_2

New Line.l(r:p2rdt12638lv-p2rlv29491) length=0.0449728 units=km bus1=p2rdt12638lv.1.2 bus2=p2rlv29491.1.2 switch=False enabled=True phases=2 linecode=1p_oh_al_4/0_zuzara_2

New Line.l(r:p2rdt12639lv-p2rlv29484) length=0.0301407 units=km bus1=p2rdt12639lv.1.2 bus2=p2rlv29484.1.2 switch=False enabled=True phases=2 linecode=1p_oh_al_4/0_zuzara_2

New Line.l(r:p2rdt12639lv-p2rlv29486) length=0.0165732 units=km bus1=p2rdt12639lv.1.2 bus2=p2rlv29486.1.2 switch=False enabled=True phases=2 linecode=1p_oh_al_2/0_rucina_2

New Line.l(r:p2rdt12639lv-p2rlv29487) length=0.0209919 units=km bus1=p2rdt12639lv.1.2 bus2=p2rlv29487.1.2 switch=False enabled=True phases=2 linecode=1p_oh_al_2/0_rucina_2

New Line.l(r:p2rdt12639lv-p2rlv29488) length=0.009101850000000002 units=km bus1=p2rdt12639lv.1.2 bus2=p2rlv29488.1.2 switch=False enabled=True phases=2 linecode=1p_oh_al_2/0_rucina_2

New Line.l(r:p2rdt12639lv-p2rlv29489) length=0.0115259 units=km bus1=p2rdt12639lv.1.2 bus2=p2rlv29489.1.2 switch=False enabled=True phases=2 linecode=1p_oh_al_2/0_rucina_2

New Line.l(r:p2rdt12640lv-p2rlv29493) length=0.0232044 units=km bus1=p2rdt12640lv.1.2 bus2=p2rlv29493.1.2 switch=False enabled=True phases=2 linecode=1p_oh_al_2/0_rucina_2

New Line.l(r:p2rdm29092-p2rlv29494) length=0.0126597 units=km bus1=p2rdm29092.1.2 bus2=p2rlv29494.1.2 switch=False enabled=True phases=2 linecode=1p_oh_al_2/0_rucina_2

New Line.l(r:p2rdm29092-p2rdt12641lv) length=0.0186551 units=km bus1=p2rdt12641lv.1.2 bus2=p2rdm29092.1.2 switch=False enabled=True phases=2 linecode=1p_oh_al_2/0_rucina_2

New Line.l(r:p2rdm29093-p2rlv30432) length=0.0429827 units=km bus1=p2rdm29093.1.2 bus2=p2rlv30432.1.2 switch=False enabled=True phases=2 linecode=1p_oh_al_4/0_zuzara_2

New Line.l(r:p2rdm29093-p2rdt12641lv) length=0.0186551 units=km bus1=p2rdt12641lv.1.2 bus2=p2rdm29093.1.2 switch=False enabled=True phases=2 linecode=1p_oh_al_2/0_rucina_2

New Line.l(r:p2rdt12642lv-p2rlv29495) length=0.0144053 units=km bus1=p2rdt12642lv.1.2 bus2=p2rlv29495.1.2 switch=False enabled=True phases=2 linecode=1p_oh_al_2/0_rucina_2

New Line.l(r:p2rdt12643lv-p2rlv30564) length=0.0177601 units=km bus1=p2rdt12643lv.1.2 bus2=p2rlv30564.1.2 switch=False enabled=True phases=2 linecode=1p_oh_al_2/0_rucina_2

New Line.l(r:p2rdm29095-p2rlv29496) length=0.0115581 units=km bus1=p2rdm29095.1.2 bus2=p2rlv29496.1.2 switch=False enabled=True phases=2 linecode=1p_oh_al_2/0_rucina_2

New Line.l(r:p2rdm29095-p2rdt12643lv) length=0.0572218 units=km bus1=p2rdt12643lv.1.2 bus2=p2rdm29095.1.2 switch=False enabled=True phases=2 linecode=1p_oh_al_4/0_zuzara_2

New Line.l(r:p2rdm29096-p2rlv29497) length=0.0127892 units=km bus1=p2rdm29096.1.2 bus2=p2rlv29497.1.2 switch=False enabled=True phases=2 linecode=1p_oh_al_2/0_rucina_2

New Line.l(r:p2rdm29096-p2rdt12643lv) length=0.057222 units=km bus1=p2rdt12643lv.1.2 bus2=p2rdm29096.1.2 switch=False enabled=True phases=2 linecode=1p_oh_al_4/0_zuzara_2

New Line.l(r:p2rdt12654lv-p2rlv29510) length=0.030776800000000003 units=km bus1=p2rdt12654lv.1.2 bus2=p2rlv29510.1.2 switch=False enabled=True phases=2 linecode=1p_oh_al_4/0_zuzara_2

New Line.l(r:p2rdt12655lv-p2rlv29511) length=0.022482200000000004 units=km bus1=p2rdt12655lv.1.2 bus2=p2rlv29511.1.2 switch=False enabled=True phases=2 linecode=1p_oh_al_2/0_rucina_2

New Line.l(r:p2rdt12656lv-p2rlv29513) length=0.0240134 units=km bus1=p2rdt12656lv.1.2 bus2=p2rlv29513.1.2 switch=False enabled=True phases=2 linecode=1p_oh_al_2/0_rucina_2

New Line.l(r:p2rdm29113-p2rlv29512) length=0.018154400000000005 units=km bus1=p2rdm29113.1.2 bus2=p2rlv29512.1.2 switch=False enabled=True phases=2 linecode=1p_oh_al_2/0_rucina_2

New Line.l(r:p2rdm29113-p2rdt12656lv) length=0.0227157 units=km bus1=p2rdt12656lv.1.2 bus2=p2rdm29113.1.2 switch=False enabled=True phases=2 linecode=1p_oh_al_2/0_rucina_2

New Line.l(r:p2rdm29115-p2rlv29514) length=0.023016400000000003 units=km bus1=p2rdm29115.1.2 bus2=p2rlv29514.1.2 switch=False enabled=True phases=2 linecode=1p_oh_al_2/0_rucina_2

New Line.l(r:p2rdm29115-p2rdt12656lv) length=0.0139109 units=km bus1=p2rdt12656lv.1.2 bus2=p2rdm29115.1.2 switch=False enabled=True phases=2 linecode=1p_oh_al_2/0_rucina_2

New Line.l(r:p2rdt12657lv-p2rlv29515) length=0.017105900000000004 units=km bus1=p2rdt12657lv.1.2 bus2=p2rlv29515.1.2 switch=False enabled=True phases=2 linecode=1p_oh_al_2/0_rucina_2

New Line.l(r:p2rdm29118-p2rlv29517) length=0.0153125 units=km bus1=p2rdm29118.1.2 bus2=p2rlv29517.1.2 switch=False enabled=True phases=2 linecode=1p_oh_al_2/0_rucina_2

New Line.l(r:p2rdm29117-p2rlv29516) length=0.0161283 units=km bus1=p2rdm29117.1.2 bus2=p2rlv29516.1.2 switch=False enabled=True phases=2 linecode=1p_oh_al_2/0_rucina_2

New Line.l(r:p2rdm29117-p2rdm29118) length=0.05666790000000001 units=km bus1=p2rdm29118.1.2 bus2=p2rdm29117.1.2 switch=False enabled=True phases=2 linecode=1p_oh_al_4/0_zuzara_2

New Line.l(r:p2rdm29118-p2rdt12658lv) length=0.0366131 units=km bus1=p2rdt12658lv.1.2 bus2=p2rdm29118.1.2 switch=False enabled=True phases=2 linecode=1p_oh_al_4/0_zuzara_2

New Line.l(r:p2rdm29119-p2rlv29518) length=0.0177609 units=km bus1=p2rdm29119.1.2 bus2=p2rlv29518.1.2 switch=False enabled=True phases=2 linecode=1p_oh_al_2/0_rucina_2

New Line.l(r:p2rdm29119-p2rlv29519) length=0.0170494 units=km bus1=p2rdm29119.1.2 bus2=p2rlv29519.1.2 switch=False enabled=True phases=2 linecode=1p_oh_al_2/0_rucina_2

New Line.l(r:p2rdm29121-p2rlv29520) length=0.0199831 units=km bus1=p2rdm29121.1.2 bus2=p2rlv29520.1.2 switch=False enabled=True phases=2 linecode=1p_oh_al_2/0_rucina_2

New Line.l(r:p2rdm29122-p2rlv29521) length=0.0423016 units=km bus1=p2rdm29122.1.2 bus2=p2rlv29521.1.2 switch=False enabled=True phases=2 linecode=1p_oh_al_4/0_zuzara_2

New Line.l(r:p2rdm29121-p2rdm29122) length=0.0149028 units=km bus1=p2rdm29121.1.2 bus2=p2rdm29122.1.2 switch=False enabled=True phases=2 linecode=1p_oh_al_2/0_rucina_2

New Line.l(r:p2rdm29119-p2rdm29121) length=0.0282218 units=km bus1=p2rdm29119.1.2 bus2=p2rdm29121.1.2 switch=False enabled=True phases=2 linecode=1p_oh_al_4/0_zuzara_2

New Line.l(r:p2rdm29119-p2rdt12658lv) length=0.013309 units=km bus1=p2rdt12658lv.1.2 bus2=p2rdm29119.1.2 switch=False enabled=True phases=2 linecode=1p_oh_al_2/0_rucina_2

New Line.l(r:p2rdt12659lv-p2rlv29522) length=0.0125054 units=km bus1=p2rdt12659lv.1.2 bus2=p2rlv29522.1.2 switch=False enabled=True phases=2 linecode=1p_oh_al_2/0_rucina_2

New Line.l(r:p2rdt12660lv-p2rlv29523) length=0.0775669 units=km bus1=p2rdt12660lv.1.2 bus2=p2rlv29523.1.2 switch=False enabled=True phases=2 linecode=1p_oh_al_4/0_zuzara_2

New Line.l(r:p2rdt12661lv-p2rlv29524) length=0.001 units=km bus1=p2rdt12661lv.1.2 bus2=p2rlv29524.1.2 switch=False enabled=True phases=2 linecode=1p_oh_al_4_periwinkle_2

New Line.l(r:p2rdt12662lv-p2rlv29525) length=0.013279000000000001 units=km bus1=p2rdt12662lv.1.2 bus2=p2rlv29525.1.2 switch=False enabled=True phases=2 linecode=1p_oh_al_2/0_rucina_2

New Line.l(r:p2rdt12663lv-p2rlv29526) length=0.00494009 units=km bus1=p2rdt12663lv.1.2 bus2=p2rlv29526.1.2 switch=False enabled=True phases=2 linecode=1p_oh_al_2/0_rucina_2

New Line.l(r:p2rdt12664lv-p2rlv29527) length=0.001 units=km bus1=p2rdt12664lv.1.2 bus2=p2rlv29527.1.2 switch=False enabled=True phases=2 linecode=1p_oh_al_4_periwinkle_2

New Line.l(r:p2rdt12665lv-p2rlv29528) length=0.001 units=km bus1=p2rdt12665lv.1.2 bus2=p2rlv29528.1.2 switch=False enabled=True phases=2 linecode=1p_oh_al_4_periwinkle_2

New Line.l(r:p2rdt12677lv-p2rlv29544) length=0.0411096 units=km bus1=p2rdt12677lv.1.2 bus2=p2rlv29544.1.2 switch=False enabled=True phases=2 linecode=1p_oh_al_4/0_zuzara_2

New Line.l(r:p2rdt12703lv-p2rlv29732) length=0.0038058 units=km bus1=p2rdt12703lv.1.2 bus2=p2rlv29732.1.2 switch=False enabled=True phases=2 linecode=1p_oh_al_4_periwinkle_2

New Line.l(r:p2rdm29194-p2rlv29591) length=0.00360472 units=km bus1=p2rdm29194.1.2 bus2=p2rlv29591.1.2 switch=False enabled=True phases=2 linecode=1p_oh_al_4_periwinkle_2

New Line.l(r:p2rdm29195-p2rlv29596) length=0.0246431 units=km bus1=p2rdm29195.1.2 bus2=p2rlv29596.1.2 switch=False enabled=True phases=2 linecode=1p_oh_al_2/0_rucina_2

New Line.l(r:p2rdm29194-p2rdm29195) length=0.0550248 units=km bus1=p2rdm29194.1.2 bus2=p2rdm29195.1.2 switch=False enabled=True phases=2 linecode=1p_oh_al_4/0_zuzara_2

New Line.l(r:p2rdm29194-p2rdt12703lv) length=0.018481200000000003 units=km bus1=p2rdt12703lv.1.2 bus2=p2rdm29194.1.2 switch=False enabled=True phases=2 linecode=1p_oh_al_2/0_rucina_2

New Line.l(r:p2rdm29198-p2rlv29730) length=0.00659267 units=km bus1=p2rdm29198.1.2 bus2=p2rlv29730.1.2 switch=False enabled=True phases=2 linecode=1p_oh_al_2/0_rucina_2

New Line.l(r:p2rdm29197-p2rlv29729) length=0.00435184 units=km bus1=p2rdm29197.1.2 bus2=p2rlv29729.1.2 switch=False enabled=True phases=2 linecode=1p_oh_al_2/0_rucina_2

New Line.l(r:p2rdm29196-p2rlv29727) length=0.00544648 units=km bus1=p2rdm29196.1.2 bus2=p2rlv29727.1.2 switch=False enabled=True phases=2 linecode=1p_oh_al_2/0_rucina_2

New Line.l(r:p2rdm29196-p2rdm29197) length=0.018481200000000003 units=km bus1=p2rdm29197.1.2 bus2=p2rdm29196.1.2 switch=False enabled=True phases=2 linecode=1p_oh_al_2/0_rucina_2

New Line.l(r:p2rdm29197-p2rdm29198) length=0.018481200000000003 units=km bus1=p2rdm29198.1.2 bus2=p2rdm29197.1.2 switch=False enabled=True phases=2 linecode=1p_oh_al_2/0_rucina_2

New Line.l(r:p2rdm29198-p2rdt12703lv) length=0.0184712 units=km bus1=p2rdt12703lv.1.2 bus2=p2rdm29198.1.2 switch=False enabled=True phases=2 linecode=1p_oh_al_2/0_rucina_2

New Line.l(r:p2rdt12704lv-p2rlv29592) length=0.0136386 units=km bus1=p2rdt12704lv.1.2 bus2=p2rlv29592.1.2 switch=False enabled=True phases=2 linecode=1p_oh_al_2/0_rucina_2

New Line.l(r:p2rdt12705lv-p2rlv29593) length=0.0368504 units=km bus1=p2rdt12705lv.1.2 bus2=p2rlv29593.1.2 switch=False enabled=True phases=2 linecode=1p_oh_al_4/0_zuzara_2

New Line.l(r:p2rdt12706lv-p2rlv29594) length=0.010263600000000001 units=km bus1=p2rdt12706lv.1.2 bus2=p2rlv29594.1.2 switch=False enabled=True phases=2 linecode=1p_oh_al_2/0_rucina_2

New Line.l(r:p2rdt12707lv-p2rlv29599) length=0.00739693 units=km bus1=p2rdt12707lv.1.2 bus2=p2rlv29599.1.2 switch=False enabled=True phases=2 linecode=1p_oh_al_2/0_rucina_2

New Line.l(r:p2rdt12707lv-p2rlv29603) length=0.035172300000000004 units=km bus1=p2rdt12707lv.1.2 bus2=p2rlv29603.1.2 switch=False enabled=True phases=2 linecode=1p_oh_al_4/0_zuzara_2

New Line.l(r:p2rdm29203-p2rlv29597) length=0.00766265 units=km bus1=p2rdm29203.1.2 bus2=p2rlv29597.1.2 switch=False enabled=True phases=2 linecode=1p_oh_al_2/0_rucina_2

New Line.l(r:p2rdm29203-p2rlv29598) length=0.00824052 units=km bus1=p2rdm29203.1.2 bus2=p2rlv29598.1.2 switch=False enabled=True phases=2 linecode=1p_oh_al_2/0_rucina_2

New Line.l(r:p2rdm29203-p2rdt12707lv) length=0.0250819 units=km bus1=p2rdt12707lv.1.2 bus2=p2rdm29203.1.2 switch=False enabled=True phases=2 linecode=1p_oh_al_2/0_rucina_2

New Line.l(r:p2rdm29206-p2rlv29600) length=0.00614033 units=km bus1=p2rdm29206.1.2 bus2=p2rlv29600.1.2 switch=False enabled=True phases=2 linecode=1p_oh_al_2/0_rucina_2

New Line.l(r:p2rdm29207-p2rlv29601) length=0.00656427 units=km bus1=p2rdm29207.1.2 bus2=p2rlv29601.1.2 switch=False enabled=True phases=2 linecode=1p_oh_al_2/0_rucina_2

New Line.l(r:p2rdm29208-p2rlv29602) length=0.00932765 units=km bus1=p2rdm29208.1.2 bus2=p2rlv29602.1.2 switch=False enabled=True phases=2 linecode=1p_oh_al_2/0_rucina_2

New Line.l(r:p2rdm29207-p2rdm29208) length=0.0119981 units=km bus1=p2rdm29207.1.2 bus2=p2rdm29208.1.2 switch=False enabled=True phases=2 linecode=1p_oh_al_2/0_rucina_2

New Line.l(r:p2rdm29206-p2rdm29207) length=0.00992477 units=km bus1=p2rdm29206.1.2 bus2=p2rdm29207.1.2 switch=False enabled=True phases=2 linecode=1p_oh_al_2/0_rucina_2

New Line.l(r:p2rdm29206-p2rdt12707lv) length=0.0106419 units=km bus1=p2rdt12707lv.1.2 bus2=p2rdm29206.1.2 switch=False enabled=True phases=2 linecode=1p_oh_al_2/0_rucina_2

New Line.l(r:p2rdt12709lv-p2rlv29606) length=0.0328254 units=km bus1=p2rdt12709lv.1.2 bus2=p2rlv29606.1.2 switch=False enabled=True phases=2 linecode=1p_oh_al_4/0_zuzara_2

New Line.l(r:p2rdt12711lv-p2rlv29608) length=0.008673640000000002 units=km bus1=p2rdt12711lv.1.2 bus2=p2rlv29608.1.2 switch=False enabled=True phases=2 linecode=1p_oh_al_2/0_rucina_2

New Line.l(r:p2rdm29216-p2rlv29610) length=0.0381671 units=km bus1=p2rdm29216.1.2 bus2=p2rlv29610.1.2 switch=False enabled=True phases=2 linecode=1p_oh_al_4/0_zuzara_2

New Line.l(r:p2rdm29216-p2rdt12713lv) length=0.015363800000000002 units=km bus1=p2rdt12713lv.1.2 bus2=p2rdm29216.1.2 switch=False enabled=True phases=2 linecode=1p_oh_al_2/0_rucina_2

New Line.l(r:p2rdm29217-p2rlv31120) length=0.00878171 units=km bus1=p2rdm29217.1.2 bus2=p2rlv31120.1.2 switch=False enabled=True phases=2 linecode=1p_oh_al_2/0_rucina_2

New Line.l(r:p2rdm29217-p2rdt12713lv) length=0.0119907 units=km bus1=p2rdt12713lv.1.2 bus2=p2rdm29217.1.2 switch=False enabled=True phases=2 linecode=1p_oh_al_2/0_rucina_2

New Line.l(r:p2rdt12714lv-p2rlv29611) length=0.0780075 units=km bus1=p2rdt12714lv.1.2 bus2=p2rlv29611.1.2 switch=False enabled=True phases=2 linecode=1p_oh_al_4/0_zuzara_2

New Line.l(r:p2rdt12715lv-p2rlv29612) length=0.0478523 units=km bus1=p2rdt12715lv.1.2 bus2=p2rlv29612.1.2 switch=False enabled=True phases=2 linecode=1p_oh_al_4/0_zuzara_2

New Line.l(r:p2rdt12716lv-p2rlv29614) length=0.0430574 units=km bus1=p2rdt12716lv.1.2 bus2=p2rlv29614.1.2 switch=False enabled=True phases=2 linecode=1p_oh_al_4/0_zuzara_2

New Line.l(r:p2rdm29220-p2rlv29613) length=0.0232187 units=km bus1=p2rdm29220.1.2 bus2=p2rlv29613.1.2 switch=False enabled=True phases=2 linecode=1p_oh_al_2/0_rucina_2

New Line.l(r:p2rdm29220-p2rdt12716lv) length=0.0195109 units=km bus1=p2rdt12716lv.1.2 bus2=p2rdm29220.1.2 switch=False enabled=True phases=2 linecode=1p_oh_al_2/0_rucina_2

New Line.l(r:p2rdm29222-p2rlv29615) length=0.053462600000000006 units=km bus1=p2rdm29222.1.2 bus2=p2rlv29615.1.2 switch=False enabled=True phases=2 linecode=1p_oh_al_4/0_zuzara_2

New Line.l(r:p2rdm29222-p2rdt12716lv) length=0.019510800000000002 units=km bus1=p2rdt12716lv.1.2 bus2=p2rdm29222.1.2 switch=False enabled=True phases=2 linecode=1p_oh_al_2/0_rucina_2

New Line.l(r:p2rdt12717lv-p2rlv29616) length=0.0538898 units=km bus1=p2rdt12717lv.1.2 bus2=p2rlv29616.1.2 switch=False enabled=True phases=2 linecode=1p_oh_al_4/0_zuzara_2

New Line.l(r:p2rdt12718lv-p2rlv29617) length=0.0194967 units=km bus1=p2rdt12718lv.1.2 bus2=p2rlv29617.1.2 switch=False enabled=True phases=2 linecode=1p_oh_al_2/0_rucina_2

New Line.l(r:p2rdt12718lv-p2rlv31124) length=0.0163687 units=km bus1=p2rdt12718lv.1.2 bus2=p2rlv31124.1.2 switch=False enabled=True phases=2 linecode=1p_oh_al_2/0_rucina_2

New Line.l(r:p2rdt12728lv-p2rlv29645) length=0.0696223 units=km bus1=p2rdt12728lv.1.2 bus2=p2rlv29645.1.2 switch=False enabled=True phases=2 linecode=1p_oh_al_4/0_zuzara_2

New Line.l(r:p2rdm29257-p2rlv29646) length=0.0155441 units=km bus1=p2rdm29257.1.2 bus2=p2rlv29646.1.2 switch=False enabled=True phases=2 linecode=1p_oh_al_2/0_rucina_2

New Line.l(r:p2rdm29257-p2rdt12728lv) length=0.0193415 units=km bus1=p2rdt12728lv.1.2 bus2=p2rdm29257.1.2 switch=False enabled=True phases=2 linecode=1p_oh_al_2/0_rucina_2

New Line.l(r:p2rdt12729lv-p2rlv29652) length=0.00706884 units=km bus1=p2rdt12729lv.1.2 bus2=p2rlv29652.1.2 switch=False enabled=True phases=2 linecode=1p_oh_al_2/0_rucina_2

New Line.l(r:p2rdm29258-p2rlv29647) length=0.0496445 units=km bus1=p2rdm29258.1.2 bus2=p2rlv29647.1.2 switch=False enabled=True phases=2 linecode=1p_oh_al_4/0_zuzara_2

New Line.l(r:p2rdm29258-p2rdt12729lv) length=0.0574949 units=km bus1=p2rdt12729lv.1.2 bus2=p2rdm29258.1.2 switch=False enabled=True phases=2 linecode=1p_oh_al_4/0_zuzara_2

New Line.l(r:p2rdm29259-p2rlv29650) length=0.0786481 units=km bus1=p2rdm29259.1.2 bus2=p2rlv29650.1.2 switch=False enabled=True phases=2 linecode=1p_oh_al_4/0_zuzara_2

New Line.l(r:p2rdm29259-p2rlv29651) length=0.0275287 units=km bus1=p2rdm29259.1.2 bus2=p2rlv29651.1.2 switch=False enabled=True phases=2 linecode=1p_oh_al_4/0_zuzara_2

New Line.l(r:p2rdm29259-p2rdt12729lv) length=0.0375939 units=km bus1=p2rdt12729lv.1.2 bus2=p2rdm29259.1.2 switch=False enabled=True phases=2 linecode=1p_oh_al_4/0_zuzara_2

New Line.l(r:p2rdt12730lv-p2rlv29648) length=0.0285489 units=km bus1=p2rdt12730lv.1.2 bus2=p2rlv29648.1.2 switch=False enabled=True phases=2 linecode=1p_oh_al_4/0_zuzara_2

New Line.l(r:p2rdt12730lv-p2rlv29649) length=0.0285489 units=km bus1=p2rdt12730lv.1.2 bus2=p2rlv29649.1.2 switch=False enabled=True phases=2 linecode=1p_oh_al_4/0_zuzara_2

New Line.l(r:p2rdt12731lv-p2rlv29653) length=0.0499744 units=km bus1=p2rdt12731lv.1.2 bus2=p2rlv29653.1.2 switch=False enabled=True phases=2 linecode=1p_oh_al_4/0_zuzara_2

New Line.l(r:p2rdt12732lv-p2rlv29654) length=0.013514800000000002 units=km bus1=p2rdt12732lv.1.2 bus2=p2rlv29654.1.2 switch=False enabled=True phases=2 linecode=1p_oh_al_2/0_rucina_2

New Line.l(r:p2rdm29267-p2rlv29659) length=0.00802318 units=km bus1=p2rdm29267.1.2 bus2=p2rlv29659.1.2 switch=False enabled=True phases=2 linecode=1p_oh_al_2/0_rucina_2

New Line.l(r:p2rdm29266-p2rlv29655) length=0.00679777 units=km bus1=p2rdm29266.1.2 bus2=p2rlv29655.1.2 switch=False enabled=True phases=2 linecode=1p_oh_al_2/0_rucina_2

New Line.l(r:p2rdm29266-p2rdm29267) length=0.0173922 units=km bus1=p2rdm29267.1.2 bus2=p2rdm29266.1.2 switch=False enabled=True phases=2 linecode=1p_oh_al_2/0_rucina_2

New Line.l(r:p2rdm29267-p2rdt12733lv) length=0.0196914 units=km bus1=p2rdt12733lv.1.2 bus2=p2rdm29267.1.2 switch=False enabled=True phases=2 linecode=1p_oh_al_2/0_rucina_2

New Line.l(r:p2rdm29268-p2rlv29660) length=0.00548476 units=km bus1=p2rdm29268.1.2 bus2=p2rlv29660.1.2 switch=False enabled=True phases=2 linecode=1p_oh_al_2/0_rucina_2

New Line.l(r:p2rdm29269-p2rlv31121) length=0.00439901 units=km bus1=p2rdm29269.1.2 bus2=p2rlv31121.1.2 switch=False enabled=True phases=2 linecode=1p_oh_al_2/0_rucina_2

New Line.l(r:p2rdm29268-p2rdm29269) length=0.0197017 units=km bus1=p2rdm29268.1.2 bus2=p2rdm29269.1.2 switch=False enabled=True phases=2 linecode=1p_oh_al_2/0_rucina_2

New Line.l(r:p2rdm29268-p2rdt12733lv) length=0.0197017 units=km bus1=p2rdt12733lv.1.2 bus2=p2rdm29268.1.2 switch=False enabled=True phases=2 linecode=1p_oh_al_2/0_rucina_2

New Line.l(r:p2rdt12734lv-p2rlv29657) length=0.0253106 units=km bus1=p2rdt12734lv.1.2 bus2=p2rlv29657.1.2 switch=False enabled=True phases=2 linecode=1p_oh_al_2/0_rucina_2

New Line.l(r:p2rdt12734lv-p2rlv29658) length=0.00545444 units=km bus1=p2rdt12734lv.1.2 bus2=p2rlv29658.1.2 switch=False enabled=True phases=2 linecode=1p_oh_al_2/0_rucina_2

New Line.l(r:p2rdm29270-p2rlv29656) length=0.0198274 units=km bus1=p2rdm29270.1.2 bus2=p2rlv29656.1.2 switch=False enabled=True phases=2 linecode=1p_oh_al_2/0_rucina_2

New Line.l(r:p2rdm29270-p2rdt12734lv) length=0.015622 units=km bus1=p2rdt12734lv.1.2 bus2=p2rdm29270.1.2 switch=False enabled=True phases=2 linecode=1p_oh_al_2/0_rucina_2

New Line.l(r:p2rdt12751lv-p2rlv29697) length=0.0238715 units=km bus1=p2rdt12751lv.1.2 bus2=p2rlv29697.1.2 switch=False enabled=True phases=2 linecode=1p_oh_al_2/0_rucina_2

New Line.l(r:p2rdm29311-p2rlv29700) length=0.009555940000000002 units=km bus1=p2rdm29311.1.2 bus2=p2rlv29700.1.2 switch=False enabled=True phases=2 linecode=1p_oh_al_2/0_rucina_2

New Line.l(r:p2rdm29310-p2rlv29698) length=0.0264783 units=km bus1=p2rdm29310.1.2 bus2=p2rlv29698.1.2 switch=False enabled=True phases=2 linecode=1p_oh_al_2/0_rucina_2

New Line.l(r:p2rdm29310-p2rdm29311) length=0.0171755 units=km bus1=p2rdm29311.1.2 bus2=p2rdm29310.1.2 switch=False enabled=True phases=2 linecode=1p_oh_al_2/0_rucina_2

New Line.l(r:p2rdm29311-p2rdt12752lv) length=0.0171747 units=km bus1=p2rdt12752lv.1.2 bus2=p2rdm29311.1.2 switch=False enabled=True phases=2 linecode=1p_oh_al_2/0_rucina_2

New Line.l(r:p2rdm29312-p2rlv29701) length=0.023009 units=km bus1=p2rdm29312.1.2 bus2=p2rlv29701.1.2 switch=False enabled=True phases=2 linecode=1p_oh_al_2/0_rucina_2

New Line.l(r:p2rdm29312-p2rdt12752lv) length=0.0594494 units=km bus1=p2rdt12752lv.1.2 bus2=p2rdm29312.1.2 switch=False enabled=True phases=2 linecode=1p_oh_al_4/0_zuzara_2

New Line.l(r:p2rdm29313-p2rlv29699) length=0.00967873 units=km bus1=p2rdm29313.1.2 bus2=p2rlv29699.1.2 switch=False enabled=True phases=2 linecode=1p_oh_al_2/0_rucina_2

New Line.l(r:p2rdm29313-p2rdt12753lv) length=0.0576305 units=km bus1=p2rdt12753lv.1.2 bus2=p2rdm29313.1.2 switch=False enabled=True phases=2 linecode=1p_oh_al_4/0_zuzara_2

New Line.l(r:p2rdm29314-p2rlv29704) length=0.0115105 units=km bus1=p2rdm29314.1.2 bus2=p2rlv29704.1.2 switch=False enabled=True phases=2 linecode=1p_oh_al_2/0_rucina_2

New Line.l(r:p2rdm29314-p2rdt12753lv) length=0.05550270000000001 units=km bus1=p2rdt12753lv.1.2 bus2=p2rdm29314.1.2 switch=False enabled=True phases=2 linecode=1p_oh_al_4/0_zuzara_2

New Line.l(r:p2rdt12754lv-p2rlv29705) length=0.0117321 units=km bus1=p2rdt12754lv.1.2 bus2=p2rlv29705.1.2 switch=False enabled=True phases=2 linecode=1p_oh_al_2/0_rucina_2

New Line.l(r:p2rdt12754lv-p2rlv29707) length=0.00741151 units=km bus1=p2rdt12754lv.1.2 bus2=p2rlv29707.1.2 switch=False enabled=True phases=2 linecode=1p_oh_al_2/0_rucina_2

New Line.l(r:p2rdm29315-p2rlv29702) length=0.0168135 units=km bus1=p2rdm29315.1.2 bus2=p2rlv29702.1.2 switch=False enabled=True phases=2 linecode=1p_oh_al_2/0_rucina_2

New Line.l(r:p2rdm29315-p2rdt12754lv) length=0.0527022 units=km bus1=p2rdt12754lv.1.2 bus2=p2rdm29315.1.2 switch=False enabled=True phases=2 linecode=1p_oh_al_4/0_zuzara_2

New Line.l(r:p2rdm29317-p2rlv29706) length=0.00902237 units=km bus1=p2rdm29317.1.2 bus2=p2rlv29706.1.2 switch=False enabled=True phases=2 linecode=1p_oh_al_2/0_rucina_2

New Line.l(r:p2rdm29317-p2rdt12754lv) length=0.0844528 units=km bus1=p2rdt12754lv.1.2 bus2=p2rdm29317.1.2 switch=False enabled=True phases=2 linecode=1p_oh_al_4/0_zuzara_2

New Line.l(r:p2rdt12755lv-p2rlv29703) length=0.019891600000000002 units=km bus1=p2rdt12755lv.1.2 bus2=p2rlv29703.1.2 switch=False enabled=True phases=2 linecode=1p_oh_al_2/0_rucina_2

New Line.l(r:p2rdt12756lv-p2rlv29708) length=0.0163845 units=km bus1=p2rdt12756lv.1.2 bus2=p2rlv29708.1.2 switch=False enabled=True phases=2 linecode=1p_oh_al_2/0_rucina_2

New Line.l(r:p2rdt12757lv-p2rlv29719) length=0.0804254 units=km bus1=p2rdt12757lv.1.2 bus2=p2rlv29719.1.2 switch=False enabled=True phases=2 linecode=1p_oh_al_4/0_zuzara_2

New Line.l(r:p2rdt12757lv-p2rlv29720) length=0.06735140000000002 units=km bus1=p2rdt12757lv.1.2 bus2=p2rlv29720.1.2 switch=False enabled=True phases=2 linecode=1p_oh_al_4/0_zuzara_2

New Line.l(r:p2rdm29321-p2rlv29709) length=0.0206752 units=km bus1=p2rdm29321.1.2 bus2=p2rlv29709.1.2 switch=False enabled=True phases=2 linecode=1p_oh_al_2/0_rucina_2

New Line.l(r:p2rdm29321-p2rdt12757lv) length=0.0369238 units=km bus1=p2rdt12757lv.1.2 bus2=p2rdm29321.1.2 switch=False enabled=True phases=2 linecode=1p_oh_al_4/0_zuzara_2

New Line.l(r:p2rdm29322-p2rlv29710) length=0.022124 units=km bus1=p2rdm29322.1.2 bus2=p2rlv29710.1.2 switch=False enabled=True phases=2 linecode=1p_oh_al_2/0_rucina_2

New Line.l(r:p2rdm29322-p2rdt12757lv) length=0.018457 units=km bus1=p2rdt12757lv.1.2 bus2=p2rdm29322.1.2 switch=False enabled=True phases=2 linecode=1p_oh_al_2/0_rucina_2

New Line.l(r:p2rdm29325-p2rlv29711) length=0.0195966 units=km bus1=p2rdm29325.1.2 bus2=p2rlv29711.1.2 switch=False enabled=True phases=2 linecode=1p_oh_al_2/0_rucina_2

New Line.l(r:p2rdm29325-p2rdt12758lv) length=0.028194700000000003 units=km bus1=p2rdt12758lv.1.2 bus2=p2rdm29325.1.2 switch=False enabled=True phases=2 linecode=1p_oh_al_4/0_zuzara_2

New Line.l(r:p2rdm29326-p2rlv29713) length=0.0290513 units=km bus1=p2rdm29326.1.2 bus2=p2rlv29713.1.2 switch=False enabled=True phases=2 linecode=1p_oh_al_4/0_zuzara_2

New Line.l(r:p2rdm29326-p2rdt12758lv) length=0.0153669 units=km bus1=p2rdt12758lv.1.2 bus2=p2rdm29326.1.2 switch=False enabled=True phases=2 linecode=1p_oh_al_2/0_rucina_2

New Line.l(r:p2rdt12759lv-p2rlv29714) length=0.0595802 units=km bus1=p2rdt12759lv.1.2 bus2=p2rlv29714.1.2 switch=False enabled=True phases=2 linecode=1p_oh_al_4/0_zuzara_2
