New Generator.test_pv bus1=p2rlv29914.1.2.3 phases=3 kV=0.48 kva=200 kw=180 kvar=0 model=7 vminpu=0.91 vmaxpu=1.1