New Transformer.tr(r:p2rdt12626-p2rdt12626lv) phases=1 windings=3 %loadloss=0.798816 %Noloadloss=0.472 normhkva=27.5 wdg=1 conn=wye bus=p2rdt12626.2 Kv=14.434 kva=25.0 EmergHKVA=37.5 %r=0.266272 wdg=2 conn=wye bus=p2rdt12626lv.1.0 Kv=0.12 kva=25.0 EmergHKVA=37.5 %r=0.532544 wdg=3 conn=wye bus=p2rdt12626lv.0.2 Kv=0.12 kva=25.0 EmergHKVA=37.5 %r=0.532544 XHL=2.4 XLT=2.4 XHT=1.6

New Transformer.tr(r:p2rdt12627-p2rdt12627lv) phases=1 windings=3 %loadloss=1.248151 %Noloadloss=0.68 normhkva=11.0 wdg=1 conn=wye bus=p2rdt12627.3 Kv=14.434 kva=10.0 EmergHKVA=15.0 %r=0.41605 wdg=2 conn=wye bus=p2rdt12627lv.1.0 Kv=0.12 kva=10.0 EmergHKVA=15.0 %r=0.832101 wdg=3 conn=wye bus=p2rdt12627lv.0.2 Kv=0.12 kva=10.0 EmergHKVA=15.0 %r=0.832101 XHL=1.08 XLT=1.08 XHT=0.72

New Transformer.tr(r:p2rdt12635-p2rdt12635lv) phases=1 windings=3 %loadloss=0.798816 %Noloadloss=0.472 normhkva=27.5 wdg=1 conn=wye bus=p2rdt12635.2 Kv=14.434 kva=25.0 EmergHKVA=37.5 %r=0.266272 wdg=2 conn=wye bus=p2rdt12635lv.1.0 Kv=0.12 kva=25.0 EmergHKVA=37.5 %r=0.532544 wdg=3 conn=wye bus=p2rdt12635lv.0.2 Kv=0.12 kva=25.0 EmergHKVA=37.5 %r=0.532544 XHL=2.4 XLT=2.4 XHT=1.6

New Transformer.tr(r:p2rdt12636-p2rdt12636lv) phases=1 windings=3 %loadloss=0.798816 %Noloadloss=0.472 normhkva=27.5 wdg=1 conn=wye bus=p2rdt12636.1 Kv=14.434 kva=25.0 EmergHKVA=37.5 %r=0.266272 wdg=2 conn=wye bus=p2rdt12636lv.1.0 Kv=0.12 kva=25.0 EmergHKVA=37.5 %r=0.532544 wdg=3 conn=wye bus=p2rdt12636lv.0.2 Kv=0.12 kva=25.0 EmergHKVA=37.5 %r=0.532544 XHL=2.4 XLT=2.4 XHT=1.6

New Transformer.tr(r:p2rdt12637-p2rdt12637lv) phases=1 windings=3 %loadloss=0.798816 %Noloadloss=0.37 normhkva=55.0 wdg=1 conn=wye bus=p2rdt12637.2 Kv=14.434 kva=50.0 EmergHKVA=75.0 %r=0.266272 wdg=2 conn=wye bus=p2rdt12637lv.1.0 Kv=0.12 kva=50.0 EmergHKVA=75.0 %r=0.532544 wdg=3 conn=wye bus=p2rdt12637lv.0.2 Kv=0.12 kva=50.0 EmergHKVA=75.0 %r=0.532544 XHL=2.4 XLT=2.4 XHT=1.6

New Transformer.tr(r:p2rdt12638-p2rdt12638lv) phases=1 windings=3 %loadloss=0.798816 %Noloadloss=0.37 normhkva=55.0 wdg=1 conn=wye bus=p2rdt12638.3 Kv=14.434 kva=50.0 EmergHKVA=75.0 %r=0.266272 wdg=2 conn=wye bus=p2rdt12638lv.1.0 Kv=0.12 kva=50.0 EmergHKVA=75.0 %r=0.532544 wdg=3 conn=wye bus=p2rdt12638lv.0.2 Kv=0.12 kva=50.0 EmergHKVA=75.0 %r=0.532544 XHL=2.4 XLT=2.4 XHT=1.6

New Transformer.tr(r:p2rdt12639-p2rdt12639lv) phases=1 windings=3 %loadloss=0.49926 %Noloadloss=0.38 normhkva=82.5 wdg=1 conn=wye bus=p2rdt12639.3 Kv=14.434 kva=75.0 EmergHKVA=112.5 %r=0.16642 wdg=2 conn=wye bus=p2rdt12639lv.1.0 Kv=0.12 kva=75.0 EmergHKVA=112.5 %r=0.33284 wdg=3 conn=wye bus=p2rdt12639lv.0.2 Kv=0.12 kva=75.0 EmergHKVA=112.5 %r=0.33284 XHL=2.4 XLT=2.4 XHT=1.6

New Transformer.tr(r:p2rdt12640-p2rdt12640lv) phases=1 windings=3 %loadloss=1.248151 %Noloadloss=0.68 normhkva=11.0 wdg=1 conn=wye bus=p2rdt12640.2 Kv=14.434 kva=10.0 EmergHKVA=15.0 %r=0.41605 wdg=2 conn=wye bus=p2rdt12640lv.1.0 Kv=0.12 kva=10.0 EmergHKVA=15.0 %r=0.832101 wdg=3 conn=wye bus=p2rdt12640lv.0.2 Kv=0.12 kva=10.0 EmergHKVA=15.0 %r=0.832101 XHL=1.08 XLT=1.08 XHT=0.72

New Transformer.tr(r:p2rdt12641-p2rdt12641lv) phases=1 windings=3 %loadloss=1.248151 %Noloadloss=0.68 normhkva=11.0 wdg=1 conn=wye bus=p2rdt12641.2 Kv=14.434 kva=10.0 EmergHKVA=15.0 %r=0.41605 wdg=2 conn=wye bus=p2rdt12641lv.1.0 Kv=0.12 kva=10.0 EmergHKVA=15.0 %r=0.832101 wdg=3 conn=wye bus=p2rdt12641lv.0.2 Kv=0.12 kva=10.0 EmergHKVA=15.0 %r=0.832101 XHL=1.08 XLT=1.08 XHT=0.72

New Transformer.tr(r:p2rdt12642-p2rdt12642lv) phases=1 windings=3 %loadloss=1.248151 %Noloadloss=0.68 normhkva=11.0 wdg=1 conn=wye bus=p2rdt12642.2 Kv=14.434 kva=10.0 EmergHKVA=15.0 %r=0.41605 wdg=2 conn=wye bus=p2rdt12642lv.1.0 Kv=0.12 kva=10.0 EmergHKVA=15.0 %r=0.832101 wdg=3 conn=wye bus=p2rdt12642lv.0.2 Kv=0.12 kva=10.0 EmergHKVA=15.0 %r=0.832101 XHL=1.08 XLT=1.08 XHT=0.72

New Transformer.tr(r:p2rdt12643-p2rdt12643lv) phases=1 windings=3 %loadloss=0.798816 %Noloadloss=0.472 normhkva=27.5 wdg=1 conn=wye bus=p2rdt12643.3 Kv=14.434 kva=25.0 EmergHKVA=37.5 %r=0.266272 wdg=2 conn=wye bus=p2rdt12643lv.1.0 Kv=0.12 kva=25.0 EmergHKVA=37.5 %r=0.532544 wdg=3 conn=wye bus=p2rdt12643lv.0.2 Kv=0.12 kva=25.0 EmergHKVA=37.5 %r=0.532544 XHL=2.4 XLT=2.4 XHT=1.6

New Transformer.tr(r:p2rdt12654-p2rdt12654lv) phases=1 windings=3 %loadloss=1.248151 %Noloadloss=0.68 normhkva=11.0 wdg=1 conn=wye bus=p2rdt12654.2 Kv=14.434 kva=10.0 EmergHKVA=15.0 %r=0.41605 wdg=2 conn=wye bus=p2rdt12654lv.1.0 Kv=0.12 kva=10.0 EmergHKVA=15.0 %r=0.832101 wdg=3 conn=wye bus=p2rdt12654lv.0.2 Kv=0.12 kva=10.0 EmergHKVA=15.0 %r=0.832101 XHL=1.08 XLT=1.08 XHT=0.72

New Transformer.tr(r:p2rdt12655-p2rdt12655lv) phases=1 windings=3 %loadloss=1.248151 %Noloadloss=0.68 normhkva=11.0 wdg=1 conn=wye bus=p2rdt12655.2 Kv=14.434 kva=10.0 EmergHKVA=15.0 %r=0.41605 wdg=2 conn=wye bus=p2rdt12655lv.1.0 Kv=0.12 kva=10.0 EmergHKVA=15.0 %r=0.832101 wdg=3 conn=wye bus=p2rdt12655lv.0.2 Kv=0.12 kva=10.0 EmergHKVA=15.0 %r=0.832101 XHL=1.08 XLT=1.08 XHT=0.72

New Transformer.tr(r:p2rdt12656-p2rdt12656lv) phases=1 windings=3 %loadloss=0.798816 %Noloadloss=0.472 normhkva=27.5 wdg=1 conn=wye bus=p2rdt12656.2 Kv=14.434 kva=25.0 EmergHKVA=37.5 %r=0.266272 wdg=2 conn=wye bus=p2rdt12656lv.1.0 Kv=0.12 kva=25.0 EmergHKVA=37.5 %r=0.532544 wdg=3 conn=wye bus=p2rdt12656lv.0.2 Kv=0.12 kva=25.0 EmergHKVA=37.5 %r=0.532544 XHL=2.4 XLT=2.4 XHT=1.6

New Transformer.tr(r:p2rdt12657-p2rdt12657lv) phases=1 windings=3 %loadloss=1.248151 %Noloadloss=0.68 normhkva=11.0 wdg=1 conn=wye bus=p2rdt12657.1 Kv=14.434 kva=10.0 EmergHKVA=15.0 %r=0.41605 wdg=2 conn=wye bus=p2rdt12657lv.1.0 Kv=0.12 kva=10.0 EmergHKVA=15.0 %r=0.832101 wdg=3 conn=wye bus=p2rdt12657lv.0.2 Kv=0.12 kva=10.0 EmergHKVA=15.0 %r=0.832101 XHL=1.08 XLT=1.08 XHT=0.72

New Transformer.tr(r:p2rdt12658-p2rdt12658lv) phases=1 windings=3 %loadloss=0.798816 %Noloadloss=0.37 normhkva=55.0 wdg=1 conn=wye bus=p2rdt12658.3 Kv=14.434 kva=50.0 EmergHKVA=75.0 %r=0.266272 wdg=2 conn=wye bus=p2rdt12658lv.1.0 Kv=0.12 kva=50.0 EmergHKVA=75.0 %r=0.532544 wdg=3 conn=wye bus=p2rdt12658lv.0.2 Kv=0.12 kva=50.0 EmergHKVA=75.0 %r=0.532544 XHL=2.4 XLT=2.4 XHT=1.6

New Transformer.tr(r:p2rdt12659-p2rdt12659lv) phases=1 windings=3 %loadloss=1.248151 %Noloadloss=0.68 normhkva=11.0 wdg=1 conn=wye bus=p2rdt12659.3 Kv=14.434 kva=10.0 EmergHKVA=15.0 %r=0.41605 wdg=2 conn=wye bus=p2rdt12659lv.1.0 Kv=0.12 kva=10.0 EmergHKVA=15.0 %r=0.832101 wdg=3 conn=wye bus=p2rdt12659lv.0.2 Kv=0.12 kva=10.0 EmergHKVA=15.0 %r=0.832101 XHL=1.08 XLT=1.08 XHT=0.72

New Transformer.tr(r:p2rdt12660-p2rdt12660lv) phases=1 windings=3 %loadloss=1.248151 %Noloadloss=0.68 normhkva=11.0 wdg=1 conn=wye bus=p2rdt12660.3 Kv=14.434 kva=10.0 EmergHKVA=15.0 %r=0.41605 wdg=2 conn=wye bus=p2rdt12660lv.1.0 Kv=0.12 kva=10.0 EmergHKVA=15.0 %r=0.832101 wdg=3 conn=wye bus=p2rdt12660lv.0.2 Kv=0.12 kva=10.0 EmergHKVA=15.0 %r=0.832101 XHL=1.08 XLT=1.08 XHT=0.72

New Transformer.tr(r:p2rdt12661-p2rdt12661lv) phases=1 windings=3 %loadloss=1.248151 %Noloadloss=0.68 normhkva=11.0 wdg=1 conn=wye bus=p2rdt12661.3 Kv=14.434 kva=10.0 EmergHKVA=15.0 %r=0.41605 wdg=2 conn=wye bus=p2rdt12661lv.1.0 Kv=0.12 kva=10.0 EmergHKVA=15.0 %r=0.832101 wdg=3 conn=wye bus=p2rdt12661lv.0.2 Kv=0.12 kva=10.0 EmergHKVA=15.0 %r=0.832101 XHL=1.08 XLT=1.08 XHT=0.72

New Transformer.tr(r:p2rdt12662-p2rdt12662lv) phases=1 windings=3 %loadloss=1.248151 %Noloadloss=0.68 normhkva=11.0 wdg=1 conn=wye bus=p2rdt12662.2 Kv=14.434 kva=10.0 EmergHKVA=15.0 %r=0.41605 wdg=2 conn=wye bus=p2rdt12662lv.1.0 Kv=0.12 kva=10.0 EmergHKVA=15.0 %r=0.832101 wdg=3 conn=wye bus=p2rdt12662lv.0.2 Kv=0.12 kva=10.0 EmergHKVA=15.0 %r=0.832101 XHL=1.08 XLT=1.08 XHT=0.72

New Transformer.tr(r:p2rdt12663-p2rdt12663lv) phases=1 windings=3 %loadloss=1.248151 %Noloadloss=0.68 normhkva=11.0 wdg=1 conn=wye bus=p2rdt12663.2 Kv=14.434 kva=10.0 EmergHKVA=15.0 %r=0.41605 wdg=2 conn=wye bus=p2rdt12663lv.1.0 Kv=0.12 kva=10.0 EmergHKVA=15.0 %r=0.832101 wdg=3 conn=wye bus=p2rdt12663lv.0.2 Kv=0.12 kva=10.0 EmergHKVA=15.0 %r=0.832101 XHL=1.08 XLT=1.08 XHT=0.72

New Transformer.tr(r:p2rdt12664-p2rdt12664lv) phases=1 windings=3 %loadloss=1.248151 %Noloadloss=0.68 normhkva=11.0 wdg=1 conn=wye bus=p2rdt12664.3 Kv=14.434 kva=10.0 EmergHKVA=15.0 %r=0.41605 wdg=2 conn=wye bus=p2rdt12664lv.1.0 Kv=0.12 kva=10.0 EmergHKVA=15.0 %r=0.832101 wdg=3 conn=wye bus=p2rdt12664lv.0.2 Kv=0.12 kva=10.0 EmergHKVA=15.0 %r=0.832101 XHL=1.08 XLT=1.08 XHT=0.72

New Transformer.tr(r:p2rdt12665-p2rdt12665lv) phases=1 windings=3 %loadloss=1.248151 %Noloadloss=0.68 normhkva=11.0 wdg=1 conn=wye bus=p2rdt12665.3 Kv=14.434 kva=10.0 EmergHKVA=15.0 %r=0.41605 wdg=2 conn=wye bus=p2rdt12665lv.1.0 Kv=0.12 kva=10.0 EmergHKVA=15.0 %r=0.832101 wdg=3 conn=wye bus=p2rdt12665lv.0.2 Kv=0.12 kva=10.0 EmergHKVA=15.0 %r=0.832101 XHL=1.08 XLT=1.08 XHT=0.72

New Transformer.tr(r:p2rdt12677-p2rdt12677lv) phases=1 windings=3 %loadloss=1.248151 %Noloadloss=0.68 normhkva=11.0 wdg=1 conn=wye bus=p2rdt12677.3 Kv=14.434 kva=10.0 EmergHKVA=15.0 %r=0.41605 wdg=2 conn=wye bus=p2rdt12677lv.1.0 Kv=0.12 kva=10.0 EmergHKVA=15.0 %r=0.832101 wdg=3 conn=wye bus=p2rdt12677lv.0.2 Kv=0.12 kva=10.0 EmergHKVA=15.0 %r=0.832101 XHL=1.08 XLT=1.08 XHT=0.72

New Transformer.tr(r:p2rdt12703-p2rdt12703lv) phases=1 windings=3 %loadloss=0.798816 %Noloadloss=0.37 normhkva=55.0 wdg=1 conn=wye bus=p2rdt12703.1 Kv=14.434 kva=50.0 EmergHKVA=75.0 %r=0.266272 wdg=2 conn=wye bus=p2rdt12703lv.1.0 Kv=0.12 kva=50.0 EmergHKVA=75.0 %r=0.532544 wdg=3 conn=wye bus=p2rdt12703lv.0.2 Kv=0.12 kva=50.0 EmergHKVA=75.0 %r=0.532544 XHL=2.4 XLT=2.4 XHT=1.6

New Transformer.tr(r:p2rdt12704-p2rdt12704lv) phases=1 windings=3 %loadloss=1.248151 %Noloadloss=0.68 normhkva=11.0 wdg=1 conn=wye bus=p2rdt12704.1 Kv=14.434 kva=10.0 EmergHKVA=15.0 %r=0.41605 wdg=2 conn=wye bus=p2rdt12704lv.1.0 Kv=0.12 kva=10.0 EmergHKVA=15.0 %r=0.832101 wdg=3 conn=wye bus=p2rdt12704lv.0.2 Kv=0.12 kva=10.0 EmergHKVA=15.0 %r=0.832101 XHL=1.08 XLT=1.08 XHT=0.72

New Transformer.tr(r:p2rdt12705-p2rdt12705lv) phases=1 windings=3 %loadloss=1.248151 %Noloadloss=0.68 normhkva=11.0 wdg=1 conn=wye bus=p2rdt12705.1 Kv=14.434 kva=10.0 EmergHKVA=15.0 %r=0.41605 wdg=2 conn=wye bus=p2rdt12705lv.1.0 Kv=0.12 kva=10.0 EmergHKVA=15.0 %r=0.832101 wdg=3 conn=wye bus=p2rdt12705lv.0.2 Kv=0.12 kva=10.0 EmergHKVA=15.0 %r=0.832101 XHL=1.08 XLT=1.08 XHT=0.72

New Transformer.tr(r:p2rdt12706-p2rdt12706lv) phases=1 windings=3 %loadloss=1.248151 %Noloadloss=0.68 normhkva=11.0 wdg=1 conn=wye bus=p2rdt12706.1 Kv=14.434 kva=10.0 EmergHKVA=15.0 %r=0.41605 wdg=2 conn=wye bus=p2rdt12706lv.1.0 Kv=0.12 kva=10.0 EmergHKVA=15.0 %r=0.832101 wdg=3 conn=wye bus=p2rdt12706lv.0.2 Kv=0.12 kva=10.0 EmergHKVA=15.0 %r=0.832101 XHL=1.08 XLT=1.08 XHT=0.72

New Transformer.tr(r:p2rdt12707-p2rdt12707lv) phases=1 windings=3 %loadloss=0.798816 %Noloadloss=0.472 normhkva=27.5 wdg=1 conn=wye bus=p2rdt12707.3 Kv=14.434 kva=50.0 EmergHKVA=37.5 %r=0.266272 wdg=2 conn=wye bus=p2rdt12707lv.1.0 Kv=0.12 kva=50.0 EmergHKVA=37.5 %r=0.532544 wdg=3 conn=wye bus=p2rdt12707lv.0.2 Kv=0.12 kva=50.0 EmergHKVA=37.5 %r=0.532544 XHL=2.4 XLT=2.4 XHT=1.6

New Transformer.tr(r:p2rdt12709-p2rdt12709lv) phases=1 windings=3 %loadloss=1.248151 %Noloadloss=0.68 normhkva=11.0 wdg=1 conn=wye bus=p2rdt12709.1 Kv=14.434 kva=10.0 EmergHKVA=15.0 %r=0.41605 wdg=2 conn=wye bus=p2rdt12709lv.1.0 Kv=0.12 kva=10.0 EmergHKVA=15.0 %r=0.832101 wdg=3 conn=wye bus=p2rdt12709lv.0.2 Kv=0.12 kva=10.0 EmergHKVA=15.0 %r=0.832101 XHL=1.08 XLT=1.08 XHT=0.72

New Transformer.tr(r:p2rdt12711-p2rdt12711lv) phases=1 windings=3 %loadloss=1.248151 %Noloadloss=0.68 normhkva=11.0 wdg=1 conn=wye bus=p2rdt12711.2 Kv=14.434 kva=10.0 EmergHKVA=15.0 %r=0.41605 wdg=2 conn=wye bus=p2rdt12711lv.1.0 Kv=0.12 kva=10.0 EmergHKVA=15.0 %r=0.832101 wdg=3 conn=wye bus=p2rdt12711lv.0.2 Kv=0.12 kva=10.0 EmergHKVA=15.0 %r=0.832101 XHL=1.08 XLT=1.08 XHT=0.72

New Transformer.tr(r:p2rdt12713-p2rdt12713lv) phases=1 windings=3 %loadloss=0.798816 %Noloadloss=0.472 normhkva=27.5 wdg=1 conn=wye bus=p2rdt12713.2 Kv=14.434 kva=25.0 EmergHKVA=37.5 %r=0.266272 wdg=2 conn=wye bus=p2rdt12713lv.1.0 Kv=0.12 kva=25.0 EmergHKVA=37.5 %r=0.532544 wdg=3 conn=wye bus=p2rdt12713lv.0.2 Kv=0.12 kva=25.0 EmergHKVA=37.5 %r=0.532544 XHL=2.4 XLT=2.4 XHT=1.6

New Transformer.tr(r:p2rdt12714-p2rdt12714lv) phases=1 windings=3 %loadloss=0.798816 %Noloadloss=0.472 normhkva=27.5 wdg=1 conn=wye bus=p2rdt12714.3 Kv=14.434 kva=25.0 EmergHKVA=37.5 %r=0.266272 wdg=2 conn=wye bus=p2rdt12714lv.1.0 Kv=0.12 kva=25.0 EmergHKVA=37.5 %r=0.532544 wdg=3 conn=wye bus=p2rdt12714lv.0.2 Kv=0.12 kva=25.0 EmergHKVA=37.5 %r=0.532544 XHL=2.4 XLT=2.4 XHT=1.6

New Transformer.tr(r:p2rdt12715-p2rdt12715lv) phases=1 windings=3 %loadloss=1.248151 %Noloadloss=0.68 normhkva=11.0 wdg=1 conn=wye bus=p2rdt12715.1 Kv=14.434 kva=10.0 EmergHKVA=15.0 %r=0.41605 wdg=2 conn=wye bus=p2rdt12715lv.1.0 Kv=0.12 kva=10.0 EmergHKVA=15.0 %r=0.832101 wdg=3 conn=wye bus=p2rdt12715lv.0.2 Kv=0.12 kva=10.0 EmergHKVA=15.0 %r=0.832101 XHL=1.08 XLT=1.08 XHT=0.72

New Transformer.tr(r:p2rdt12716-p2rdt12716lv) phases=1 windings=3 %loadloss=1.248151 %Noloadloss=0.68 normhkva=11.0 wdg=1 conn=wye bus=p2rdt12716.3 Kv=14.434 kva=10.0 EmergHKVA=15.0 %r=0.41605 wdg=2 conn=wye bus=p2rdt12716lv.1.0 Kv=0.12 kva=10.0 EmergHKVA=15.0 %r=0.832101 wdg=3 conn=wye bus=p2rdt12716lv.0.2 Kv=0.12 kva=10.0 EmergHKVA=15.0 %r=0.832101 XHL=1.08 XLT=1.08 XHT=0.72

New Transformer.tr(r:p2rdt12717-p2rdt12717lv) phases=1 windings=3 %loadloss=1.248151 %Noloadloss=0.68 normhkva=11.0 wdg=1 conn=wye bus=p2rdt12717.1 Kv=14.434 kva=10.0 EmergHKVA=15.0 %r=0.41605 wdg=2 conn=wye bus=p2rdt12717lv.1.0 Kv=0.12 kva=10.0 EmergHKVA=15.0 %r=0.832101 wdg=3 conn=wye bus=p2rdt12717lv.0.2 Kv=0.12 kva=10.0 EmergHKVA=15.0 %r=0.832101 XHL=1.08 XLT=1.08 XHT=0.72

New Transformer.tr(r:p2rdt12718-p2rdt12718lv) phases=1 windings=3 %loadloss=1.248151 %Noloadloss=0.68 normhkva=11.0 wdg=1 conn=wye bus=p2rdt12718.1 Kv=14.434 kva=10.0 EmergHKVA=15.0 %r=0.41605 wdg=2 conn=wye bus=p2rdt12718lv.1.0 Kv=0.12 kva=10.0 EmergHKVA=15.0 %r=0.832101 wdg=3 conn=wye bus=p2rdt12718lv.0.2 Kv=0.12 kva=10.0 EmergHKVA=15.0 %r=0.832101 XHL=1.08 XLT=1.08 XHT=0.72

New Transformer.tr(r:p2rdt12728-p2rdt12728lv) phases=1 windings=3 %loadloss=1.248151 %Noloadloss=0.68 normhkva=11.0 wdg=1 conn=wye bus=p2rdt12728.2 Kv=14.434 kva=10.0 EmergHKVA=15.0 %r=0.41605 wdg=2 conn=wye bus=p2rdt12728lv.1.0 Kv=0.12 kva=10.0 EmergHKVA=15.0 %r=0.832101 wdg=3 conn=wye bus=p2rdt12728lv.0.2 Kv=0.12 kva=10.0 EmergHKVA=15.0 %r=0.832101 XHL=1.08 XLT=1.08 XHT=0.72

New Transformer.tr(r:p2rdt12729-p2rdt12729lv) phases=1 windings=3 %loadloss=0.798816 %Noloadloss=0.472 normhkva=27.5 wdg=1 conn=wye bus=p2rdt12729.3 Kv=14.434 kva=25.0 EmergHKVA=37.5 %r=0.266272 wdg=2 conn=wye bus=p2rdt12729lv.1.0 Kv=0.12 kva=25.0 EmergHKVA=37.5 %r=0.532544 wdg=3 conn=wye bus=p2rdt12729lv.0.2 Kv=0.12 kva=25.0 EmergHKVA=37.5 %r=0.532544 XHL=2.4 XLT=2.4 XHT=1.6

New Transformer.tr(r:p2rdt12730-p2rdt12730lv) phases=1 windings=3 %loadloss=1.248151 %Noloadloss=0.68 normhkva=11.0 wdg=1 conn=wye bus=p2rdt12730.2 Kv=14.434 kva=10.0 EmergHKVA=15.0 %r=0.41605 wdg=2 conn=wye bus=p2rdt12730lv.1.0 Kv=0.12 kva=10.0 EmergHKVA=15.0 %r=0.832101 wdg=3 conn=wye bus=p2rdt12730lv.0.2 Kv=0.12 kva=10.0 EmergHKVA=15.0 %r=0.832101 XHL=1.08 XLT=1.08 XHT=0.72

New Transformer.tr(r:p2rdt12731-p2rdt12731lv) phases=1 windings=3 %loadloss=1.248151 %Noloadloss=0.68 normhkva=11.0 wdg=1 conn=wye bus=p2rdt12731.1 Kv=14.434 kva=10.0 EmergHKVA=15.0 %r=0.41605 wdg=2 conn=wye bus=p2rdt12731lv.1.0 Kv=0.12 kva=10.0 EmergHKVA=15.0 %r=0.832101 wdg=3 conn=wye bus=p2rdt12731lv.0.2 Kv=0.12 kva=10.0 EmergHKVA=15.0 %r=0.832101 XHL=1.08 XLT=1.08 XHT=0.72

New Transformer.tr(r:p2rdt12732-p2rdt12732lv) phases=1 windings=3 %loadloss=1.248151 %Noloadloss=0.68 normhkva=11.0 wdg=1 conn=wye bus=p2rdt12732.1 Kv=14.434 kva=10.0 EmergHKVA=15.0 %r=0.41605 wdg=2 conn=wye bus=p2rdt12732lv.1.0 Kv=0.12 kva=10.0 EmergHKVA=15.0 %r=0.832101 wdg=3 conn=wye bus=p2rdt12732lv.0.2 Kv=0.12 kva=10.0 EmergHKVA=15.0 %r=0.832101 XHL=1.08 XLT=1.08 XHT=0.72

New Transformer.tr(r:p2rdt12733-p2rdt12733lv) phases=1 windings=3 %loadloss=0.798816 %Noloadloss=0.472 normhkva=27.5 wdg=1 conn=wye bus=p2rdt12733.1 Kv=14.434 kva=25.0 EmergHKVA=37.5 %r=0.266272 wdg=2 conn=wye bus=p2rdt12733lv.1.0 Kv=0.12 kva=25.0 EmergHKVA=37.5 %r=0.532544 wdg=3 conn=wye bus=p2rdt12733lv.0.2 Kv=0.12 kva=25.0 EmergHKVA=37.5 %r=0.532544 XHL=2.4 XLT=2.4 XHT=1.6

New Transformer.tr(r:p2rdt12734-p2rdt12734lv) phases=1 windings=3 %loadloss=0.798816 %Noloadloss=0.472 normhkva=27.5 wdg=1 conn=wye bus=p2rdt12734.1 Kv=14.434 kva=25.0 EmergHKVA=37.5 %r=0.266272 wdg=2 conn=wye bus=p2rdt12734lv.1.0 Kv=0.12 kva=25.0 EmergHKVA=37.5 %r=0.532544 wdg=3 conn=wye bus=p2rdt12734lv.0.2 Kv=0.12 kva=25.0 EmergHKVA=37.5 %r=0.532544 XHL=2.4 XLT=2.4 XHT=1.6

New Transformer.tr(r:p2rdt12751-p2rdt12751lv) phases=1 windings=3 %loadloss=1.248151 %Noloadloss=0.68 normhkva=11.0 wdg=1 conn=wye bus=p2rdt12751.2 Kv=14.434 kva=10.0 EmergHKVA=15.0 %r=0.41605 wdg=2 conn=wye bus=p2rdt12751lv.1.0 Kv=0.12 kva=10.0 EmergHKVA=15.0 %r=0.832101 wdg=3 conn=wye bus=p2rdt12751lv.0.2 Kv=0.12 kva=10.0 EmergHKVA=15.0 %r=0.832101 XHL=1.08 XLT=1.08 XHT=0.72

New Transformer.tr(r:p2rdt12752-p2rdt12752lv) phases=1 windings=3 %loadloss=0.798816 %Noloadloss=0.472 normhkva=27.5 wdg=1 conn=wye bus=p2rdt12752.3 Kv=14.434 kva=25.0 EmergHKVA=37.5 %r=0.266272 wdg=2 conn=wye bus=p2rdt12752lv.1.0 Kv=0.12 kva=25.0 EmergHKVA=37.5 %r=0.532544 wdg=3 conn=wye bus=p2rdt12752lv.0.2 Kv=0.12 kva=25.0 EmergHKVA=37.5 %r=0.532544 XHL=2.4 XLT=2.4 XHT=1.6

New Transformer.tr(r:p2rdt12753-p2rdt12753lv) phases=1 windings=3 %loadloss=1.248151 %Noloadloss=0.68 normhkva=11.0 wdg=1 conn=wye bus=p2rdt12753.1 Kv=14.434 kva=10.0 EmergHKVA=15.0 %r=0.41605 wdg=2 conn=wye bus=p2rdt12753lv.1.0 Kv=0.12 kva=10.0 EmergHKVA=15.0 %r=0.832101 wdg=3 conn=wye bus=p2rdt12753lv.0.2 Kv=0.12 kva=10.0 EmergHKVA=15.0 %r=0.832101 XHL=1.08 XLT=1.08 XHT=0.72

New Transformer.tr(r:p2rdt12754-p2rdt12754lv) phases=1 windings=3 %loadloss=1.248151 %Noloadloss=0.68 normhkva=11.0 wdg=1 conn=wye bus=p2rdt12754.2 Kv=14.434 kva=10.0 EmergHKVA=15.0 %r=0.41605 wdg=2 conn=wye bus=p2rdt12754lv.1.0 Kv=0.12 kva=10.0 EmergHKVA=15.0 %r=0.832101 wdg=3 conn=wye bus=p2rdt12754lv.0.2 Kv=0.12 kva=10.0 EmergHKVA=15.0 %r=0.832101 XHL=1.08 XLT=1.08 XHT=0.72

New Transformer.tr(r:p2rdt12755-p2rdt12755lv) phases=1 windings=3 %loadloss=1.248151 %Noloadloss=0.68 normhkva=11.0 wdg=1 conn=wye bus=p2rdt12755.1 Kv=14.434 kva=10.0 EmergHKVA=15.0 %r=0.41605 wdg=2 conn=wye bus=p2rdt12755lv.1.0 Kv=0.12 kva=10.0 EmergHKVA=15.0 %r=0.832101 wdg=3 conn=wye bus=p2rdt12755lv.0.2 Kv=0.12 kva=10.0 EmergHKVA=15.0 %r=0.832101 XHL=1.08 XLT=1.08 XHT=0.72

New Transformer.tr(r:p2rdt12756-p2rdt12756lv) phases=1 windings=3 %loadloss=1.248151 %Noloadloss=0.68 normhkva=11.0 wdg=1 conn=wye bus=p2rdt12756.2 Kv=14.434 kva=10.0 EmergHKVA=15.0 %r=0.41605 wdg=2 conn=wye bus=p2rdt12756lv.1.0 Kv=0.12 kva=10.0 EmergHKVA=15.0 %r=0.832101 wdg=3 conn=wye bus=p2rdt12756lv.0.2 Kv=0.12 kva=10.0 EmergHKVA=15.0 %r=0.832101 XHL=1.08 XLT=1.08 XHT=0.72

New Transformer.tr(r:p2rdt12757-p2rdt12757lv) phases=1 windings=3 %loadloss=0.49926 %Noloadloss=0.38 normhkva=82.5 wdg=1 conn=wye bus=p2rdt12757.2 Kv=14.434 kva=75.0 EmergHKVA=112.5 %r=0.16642 wdg=2 conn=wye bus=p2rdt12757lv.1.0 Kv=0.12 kva=75.0 EmergHKVA=112.5 %r=0.33284 wdg=3 conn=wye bus=p2rdt12757lv.0.2 Kv=0.12 kva=75.0 EmergHKVA=112.5 %r=0.33284 XHL=2.4 XLT=2.4 XHT=1.6

New Transformer.tr(r:p2rdt12758-p2rdt12758lv) phases=1 windings=3 %loadloss=0.798816 %Noloadloss=0.472 normhkva=27.5 wdg=1 conn=wye bus=p2rdt12758.1 Kv=14.434 kva=25.0 EmergHKVA=37.5 %r=0.266272 wdg=2 conn=wye bus=p2rdt12758lv.1.0 Kv=0.12 kva=25.0 EmergHKVA=37.5 %r=0.532544 wdg=3 conn=wye bus=p2rdt12758lv.0.2 Kv=0.12 kva=25.0 EmergHKVA=37.5 %r=0.532544 XHL=2.4 XLT=2.4 XHT=1.6

New Transformer.tr(r:p2rdt12759-p2rdt12759lv) phases=1 windings=3 %loadloss=0.798816 %Noloadloss=0.37 normhkva=55.0 wdg=1 conn=wye bus=p2rdt12759.1 Kv=14.434 kva=50.0 EmergHKVA=75.0 %r=0.266272 wdg=2 conn=wye bus=p2rdt12759lv.1.0 Kv=0.12 kva=50.0 EmergHKVA=75.0 %r=0.532544 wdg=3 conn=wye bus=p2rdt12759lv.0.2 Kv=0.12 kva=50.0 EmergHKVA=75.0 %r=0.532544 XHL=2.4 XLT=2.4 XHT=1.6

New Transformer.tr(r:p2rdt12760-p2rdt12760lv) phases=1 windings=3 %loadloss=0.798816 %Noloadloss=0.37 normhkva=55.0 wdg=1 conn=wye bus=p2rdt12760.3 Kv=14.434 kva=50.0 EmergHKVA=75.0 %r=0.266272 wdg=2 conn=wye bus=p2rdt12760lv.1.0 Kv=0.12 kva=50.0 EmergHKVA=75.0 %r=0.532544 wdg=3 conn=wye bus=p2rdt12760lv.0.2 Kv=0.12 kva=50.0 EmergHKVA=75.0 %r=0.532544 XHL=2.4 XLT=2.4 XHT=1.6

New Transformer.tr(r:p2rdt12761-p2rdt12761lv) phases=1 windings=3 %loadloss=0.798816 %Noloadloss=0.472 normhkva=27.5 wdg=1 conn=wye bus=p2rdt12761.3 Kv=14.434 kva=25.0 EmergHKVA=37.5 %r=0.266272 wdg=2 conn=wye bus=p2rdt12761lv.1.0 Kv=0.12 kva=25.0 EmergHKVA=37.5 %r=0.532544 wdg=3 conn=wye bus=p2rdt12761lv.0.2 Kv=0.12 kva=25.0 EmergHKVA=37.5 %r=0.532544 XHL=2.4 XLT=2.4 XHT=1.6

New Transformer.tr(r:p2rdt12789-p2rdt12789lv) phases=1 windings=3 %loadloss=0.798816 %Noloadloss=0.472 normhkva=27.5 wdg=1 conn=wye bus=p2rdt12789.2 Kv=14.434 kva=25.0 EmergHKVA=37.5 %r=0.266272 wdg=2 conn=wye bus=p2rdt12789lv.1.0 Kv=0.12 kva=25.0 EmergHKVA=37.5 %r=0.532544 wdg=3 conn=wye bus=p2rdt12789lv.0.2 Kv=0.12 kva=25.0 EmergHKVA=37.5 %r=0.532544 XHL=2.4 XLT=2.4 XHT=1.6

New Transformer.tr(r:p2rdt12790-p2rdt12790lv) phases=1 windings=3 %loadloss=1.248151 %Noloadloss=0.68 normhkva=11.0 wdg=1 conn=wye bus=p2rdt12790.2 Kv=14.434 kva=10.0 EmergHKVA=15.0 %r=0.41605 wdg=2 conn=wye bus=p2rdt12790lv.1.0 Kv=0.12 kva=10.0 EmergHKVA=15.0 %r=0.832101 wdg=3 conn=wye bus=p2rdt12790lv.0.2 Kv=0.12 kva=10.0 EmergHKVA=15.0 %r=0.832101 XHL=1.08 XLT=1.08 XHT=0.72

New Transformer.tr(r:p2rdt12801-p2rdt12801lv) phases=1 windings=3 %loadloss=0.798816 %Noloadloss=0.472 normhkva=27.5 wdg=1 conn=wye bus=p2rdt12801.1 Kv=14.434 kva=25.0 EmergHKVA=37.5 %r=0.266272 wdg=2 conn=wye bus=p2rdt12801lv.1.0 Kv=0.12 kva=25.0 EmergHKVA=37.5 %r=0.532544 wdg=3 conn=wye bus=p2rdt12801lv.0.2 Kv=0.12 kva=25.0 EmergHKVA=37.5 %r=0.532544 XHL=2.4 XLT=2.4 XHT=1.6

New Transformer.tr(r:p2rdt12802-p2rdt12802lv) phases=1 windings=3 %loadloss=0.798816 %Noloadloss=0.472 normhkva=27.5 wdg=1 conn=wye bus=p2rdt12802.1 Kv=14.434 kva=25.0 EmergHKVA=37.5 %r=0.266272 wdg=2 conn=wye bus=p2rdt12802lv.1.0 Kv=0.12 kva=25.0 EmergHKVA=37.5 %r=0.532544 wdg=3 conn=wye bus=p2rdt12802lv.0.2 Kv=0.12 kva=25.0 EmergHKVA=37.5 %r=0.532544 XHL=2.4 XLT=2.4 XHT=1.6

New Transformer.tr(r:p2rdt12803-p2rdt12803lv) phases=1 windings=3 %loadloss=1.248151 %Noloadloss=0.68 normhkva=11.0 wdg=1 conn=wye bus=p2rdt12803.1 Kv=14.434 kva=10.0 EmergHKVA=15.0 %r=0.41605 wdg=2 conn=wye bus=p2rdt12803lv.1.0 Kv=0.12 kva=10.0 EmergHKVA=15.0 %r=0.832101 wdg=3 conn=wye bus=p2rdt12803lv.0.2 Kv=0.12 kva=10.0 EmergHKVA=15.0 %r=0.832101 XHL=1.08 XLT=1.08 XHT=0.72

New Transformer.tr(r:p2rdt12804-p2rdt12804lv) phases=1 windings=3 %loadloss=0.798816 %Noloadloss=0.37 normhkva=55.0 wdg=1 conn=wye bus=p2rdt12804.1 Kv=14.434 kva=50.0 EmergHKVA=75.0 %r=0.266272 wdg=2 conn=wye bus=p2rdt12804lv.1.0 Kv=0.12 kva=50.0 EmergHKVA=75.0 %r=0.532544 wdg=3 conn=wye bus=p2rdt12804lv.0.2 Kv=0.12 kva=50.0 EmergHKVA=75.0 %r=0.532544 XHL=2.4 XLT=2.4 XHT=1.6

New Transformer.tr(r:p2rdt12805-p2rdt12805lv) phases=1 windings=3 %loadloss=1.248151 %Noloadloss=0.68 normhkva=11.0 wdg=1 conn=wye bus=p2rdt12805.1 Kv=14.434 kva=10.0 EmergHKVA=15.0 %r=0.41605 wdg=2 conn=wye bus=p2rdt12805lv.1.0 Kv=0.12 kva=10.0 EmergHKVA=15.0 %r=0.832101 wdg=3 conn=wye bus=p2rdt12805lv.0.2 Kv=0.12 kva=10.0 EmergHKVA=15.0 %r=0.832101 XHL=1.08 XLT=1.08 XHT=0.72

New Transformer.tr(r:p2rdt12806-p2rdt12806lv) phases=1 windings=3 %loadloss=1.248151 %Noloadloss=0.68 normhkva=11.0 wdg=1 conn=wye bus=p2rdt12806.1 Kv=14.434 kva=10.0 EmergHKVA=15.0 %r=0.41605 wdg=2 conn=wye bus=p2rdt12806lv.1.0 Kv=0.12 kva=10.0 EmergHKVA=15.0 %r=0.832101 wdg=3 conn=wye bus=p2rdt12806lv.0.2 Kv=0.12 kva=10.0 EmergHKVA=15.0 %r=0.832101 XHL=1.08 XLT=1.08 XHT=0.72

New Transformer.tr(r:p2rdt12807-p2rdt12807lv) phases=1 windings=3 %loadloss=0.798816 %Noloadloss=0.472 normhkva=27.5 wdg=1 conn=wye bus=p2rdt12807.1 Kv=14.434 kva=25.0 EmergHKVA=37.5 %r=0.266272 wdg=2 conn=wye bus=p2rdt12807lv.1.0 Kv=0.12 kva=25.0 EmergHKVA=37.5 %r=0.532544 wdg=3 conn=wye bus=p2rdt12807lv.0.2 Kv=0.12 kva=25.0 EmergHKVA=37.5 %r=0.532544 XHL=2.4 XLT=2.4 XHT=1.6

New Transformer.tr(r:p2rdt12832-p2rdt12832lv) phases=1 windings=3 %loadloss=1.248151 %Noloadloss=0.68 normhkva=11.0 wdg=1 conn=wye bus=p2rdt12832.2 Kv=14.434 kva=10.0 EmergHKVA=15.0 %r=0.41605 wdg=2 conn=wye bus=p2rdt12832lv.1.0 Kv=0.12 kva=10.0 EmergHKVA=15.0 %r=0.832101 wdg=3 conn=wye bus=p2rdt12832lv.0.2 Kv=0.12 kva=10.0 EmergHKVA=15.0 %r=0.832101 XHL=1.08 XLT=1.08 XHT=0.72

New Transformer.tr(r:p2rdt12833-p2rdt12833lv) phases=1 windings=3 %loadloss=1.248151 %Noloadloss=0.68 normhkva=11.0 wdg=1 conn=wye bus=p2rdt12833.2 Kv=14.434 kva=10.0 EmergHKVA=15.0 %r=0.41605 wdg=2 conn=wye bus=p2rdt12833lv.1.0 Kv=0.12 kva=10.0 EmergHKVA=15.0 %r=0.832101 wdg=3 conn=wye bus=p2rdt12833lv.0.2 Kv=0.12 kva=10.0 EmergHKVA=15.0 %r=0.832101 XHL=1.08 XLT=1.08 XHT=0.72

New Transformer.tr(r:p2rdt12834-p2rdt12834lv) phases=1 windings=3 %loadloss=1.248151 %Noloadloss=0.68 normhkva=11.0 wdg=1 conn=wye bus=p2rdt12834.2 Kv=14.434 kva=10.0 EmergHKVA=15.0 %r=0.41605 wdg=2 conn=wye bus=p2rdt12834lv.1.0 Kv=0.12 kva=10.0 EmergHKVA=15.0 %r=0.832101 wdg=3 conn=wye bus=p2rdt12834lv.0.2 Kv=0.12 kva=10.0 EmergHKVA=15.0 %r=0.832101 XHL=1.08 XLT=1.08 XHT=0.72

New Transformer.tr(r:p2rdt12835-p2rdt12835lv) phases=1 windings=3 %loadloss=1.248151 %Noloadloss=0.68 normhkva=11.0 wdg=1 conn=wye bus=p2rdt12835.3 Kv=14.434 kva=10.0 EmergHKVA=15.0 %r=0.41605 wdg=2 conn=wye bus=p2rdt12835lv.1.0 Kv=0.12 kva=10.0 EmergHKVA=15.0 %r=0.832101 wdg=3 conn=wye bus=p2rdt12835lv.0.2 Kv=0.12 kva=10.0 EmergHKVA=15.0 %r=0.832101 XHL=1.08 XLT=1.08 XHT=0.72

New Transformer.tr(r:p2rdt12836-p2rdt12836lv) phases=1 windings=3 %loadloss=0.798816 %Noloadloss=0.472 normhkva=27.5 wdg=1 conn=wye bus=p2rdt12836.3 Kv=14.434 kva=25.0 EmergHKVA=37.5 %r=0.266272 wdg=2 conn=wye bus=p2rdt12836lv.1.0 Kv=0.12 kva=25.0 EmergHKVA=37.5 %r=0.532544 wdg=3 conn=wye bus=p2rdt12836lv.0.2 Kv=0.12 kva=25.0 EmergHKVA=37.5 %r=0.532544 XHL=2.4 XLT=2.4 XHT=1.6

New Transformer.tr(r:p2rdt12837-p2rdt12837lv) phases=1 windings=3 %loadloss=0.798816 %Noloadloss=0.472 normhkva=27.5 wdg=1 conn=wye bus=p2rdt12837.2 Kv=14.434 kva=25.0 EmergHKVA=37.5 %r=0.266272 wdg=2 conn=wye bus=p2rdt12837lv.1.0 Kv=0.12 kva=25.0 EmergHKVA=37.5 %r=0.532544 wdg=3 conn=wye bus=p2rdt12837lv.0.2 Kv=0.12 kva=25.0 EmergHKVA=37.5 %r=0.532544 XHL=2.4 XLT=2.4 XHT=1.6

New Transformer.tr(r:p2rdt12838-p2rdt12838lv) phases=1 windings=3 %loadloss=0.798816 %Noloadloss=0.472 normhkva=27.5 wdg=1 conn=wye bus=p2rdt12838.3 Kv=14.434 kva=25.0 EmergHKVA=37.5 %r=0.266272 wdg=2 conn=wye bus=p2rdt12838lv.1.0 Kv=0.12 kva=25.0 EmergHKVA=37.5 %r=0.532544 wdg=3 conn=wye bus=p2rdt12838lv.0.2 Kv=0.12 kva=25.0 EmergHKVA=37.5 %r=0.532544 XHL=2.4 XLT=2.4 XHT=1.6

New Transformer.tr(r:p2rdt12839-p2rdt12839lv) phases=1 windings=3 %loadloss=0.798816 %Noloadloss=0.37 normhkva=55.0 wdg=1 conn=wye bus=p2rdt12839.3 Kv=14.434 kva=50.0 EmergHKVA=75.0 %r=0.266272 wdg=2 conn=wye bus=p2rdt12839lv.1.0 Kv=0.12 kva=50.0 EmergHKVA=75.0 %r=0.532544 wdg=3 conn=wye bus=p2rdt12839lv.0.2 Kv=0.12 kva=50.0 EmergHKVA=75.0 %r=0.532544 XHL=2.4 XLT=2.4 XHT=1.6

New Transformer.tr(r:p2rdt12840-p2rdt12840lv) phases=1 windings=3 %loadloss=0.798816 %Noloadloss=0.37 normhkva=55.0 wdg=1 conn=wye bus=p2rdt12840.2 Kv=14.434 kva=50.0 EmergHKVA=75.0 %r=0.266272 wdg=2 conn=wye bus=p2rdt12840lv.1.0 Kv=0.12 kva=50.0 EmergHKVA=75.0 %r=0.532544 wdg=3 conn=wye bus=p2rdt12840lv.0.2 Kv=0.12 kva=50.0 EmergHKVA=75.0 %r=0.532544 XHL=2.4 XLT=2.4 XHT=1.6

New Transformer.tr(r:p2rdt12841-p2rdt12841lv) phases=1 windings=3 %loadloss=0.798816 %Noloadloss=0.37 normhkva=55.0 wdg=1 conn=wye bus=p2rdt12841.2 Kv=14.434 kva=50.0 EmergHKVA=75.0 %r=0.266272 wdg=2 conn=wye bus=p2rdt12841lv.1.0 Kv=0.12 kva=50.0 EmergHKVA=75.0 %r=0.532544 wdg=3 conn=wye bus=p2rdt12841lv.0.2 Kv=0.12 kva=50.0 EmergHKVA=75.0 %r=0.532544 XHL=2.4 XLT=2.4 XHT=1.6

New Transformer.tr(r:p2rdt12842-p2rdt12842lv) phases=1 windings=3 %loadloss=0.798816 %Noloadloss=0.472 normhkva=27.5 wdg=1 conn=wye bus=p2rdt12842.1 Kv=14.434 kva=25.0 EmergHKVA=37.5 %r=0.266272 wdg=2 conn=wye bus=p2rdt12842lv.1.0 Kv=0.12 kva=25.0 EmergHKVA=37.5 %r=0.532544 wdg=3 conn=wye bus=p2rdt12842lv.0.2 Kv=0.12 kva=25.0 EmergHKVA=37.5 %r=0.532544 XHL=2.4 XLT=2.4 XHT=1.6

New Transformer.tr(r:p2rdt12843-p2rdt12843lv) phases=1 windings=3 %loadloss=1.248151 %Noloadloss=0.68 normhkva=11.0 wdg=1 conn=wye bus=p2rdt12843.1 Kv=14.434 kva=10.0 EmergHKVA=15.0 %r=0.41605 wdg=2 conn=wye bus=p2rdt12843lv.1.0 Kv=0.12 kva=10.0 EmergHKVA=15.0 %r=0.832101 wdg=3 conn=wye bus=p2rdt12843lv.0.2 Kv=0.12 kva=10.0 EmergHKVA=15.0 %r=0.832101 XHL=1.08 XLT=1.08 XHT=0.72

New Transformer.tr(r:p2rdt12844-p2rdt12844lv) phases=1 windings=3 %loadloss=1.248151 %Noloadloss=0.68 normhkva=11.0 wdg=1 conn=wye bus=p2rdt12844.1 Kv=14.434 kva=10.0 EmergHKVA=15.0 %r=0.41605 wdg=2 conn=wye bus=p2rdt12844lv.1.0 Kv=0.12 kva=10.0 EmergHKVA=15.0 %r=0.832101 wdg=3 conn=wye bus=p2rdt12844lv.0.2 Kv=0.12 kva=10.0 EmergHKVA=15.0 %r=0.832101 XHL=1.08 XLT=1.08 XHT=0.72

New Transformer.tr(r:p2rdt12845-p2rdt12845lv) phases=1 windings=3 %loadloss=0.798816 %Noloadloss=0.472 normhkva=27.5 wdg=1 conn=wye bus=p2rdt12845.1 Kv=14.434 kva=25.0 EmergHKVA=37.5 %r=0.266272 wdg=2 conn=wye bus=p2rdt12845lv.1.0 Kv=0.12 kva=25.0 EmergHKVA=37.5 %r=0.532544 wdg=3 conn=wye bus=p2rdt12845lv.0.2 Kv=0.12 kva=25.0 EmergHKVA=37.5 %r=0.532544 XHL=2.4 XLT=2.4 XHT=1.6
