New Line.l(r:p1rdt1681lv-p1rlv3262) Units=km Length=0.0161651 bus1=p1rdt1681lv.1.2 bus2=p1rlv3262.1.2 switch=n enabled=y phases=2 Linecode=1P_OH_AL_2/0_Rucina_2

New Line.l(r:p1rdt1681lv-p1rlv3263) Units=km Length=0.00971074 bus1=p1rdt1681lv.1.2 bus2=p1rlv3263.1.2 switch=n enabled=y phases=2 Linecode=1P_OH_AL_2/0_Rucina_2

New Line.l(r:p1rdt1683lv-p1rlv3267) Units=km Length=0.001 bus1=p1rdt1683lv.1.2 bus2=p1rlv3267.1.2 switch=n enabled=y phases=2 Linecode=1P_UG_AL_4/0_Sweetbriar_2

New Line.l(r:p1rdt1684lv-p1rlv3270) Units=km Length=0.0646757 bus1=p1rdt1684lv.1.2 bus2=p1rlv3270.1.2 switch=n enabled=y phases=2 Linecode=1P_UG_AL_1/0_Brenau_2

New Line.l(r:p1rdm3304-p1rlv3268) Units=km Length=0.0029427200000000002 bus1=p1rdm3304.1.2 bus2=p1rlv3268.1.2 switch=n enabled=y phases=2 Linecode=1P_UG_AL_2/0_Converse_2

New Line.l(r:p1rdm3304-p1rdt1684lv) Units=km Length=0.00990129 bus1=p1rdt1684lv.1.2 bus2=p1rdm3304.1.2 switch=n enabled=y phases=2 Linecode=1P_UG_AL_2/0_Converse_2

New Line.l(r:p1rdt1686lv-p1rlv3272) Units=km Length=0.0913389 bus1=p1rdt1686lv.1.2 bus2=p1rlv3272.1.2 switch=n enabled=y phases=2 Linecode=1P_UG_AL_1/0_Brenau_2

New Line.l(r:p1rdm3307-p1rlv3271) Units=km Length=0.0516488 bus1=p1rdm3307.1.2 bus2=p1rlv3271.1.2 switch=n enabled=y phases=2 Linecode=1P_OH_AL_4/0_Zuzara_2

New Line.l(r:p1rdm3307-p1rdt1686lv) Units=km Length=0.0171497 bus1=p1rdt1686lv.1.2 bus2=p1rdm3307.1.2 switch=n enabled=y phases=2 Linecode=1P_OH_AL_2/0_Rucina_2

New Line.l(r:p1rdm3309-p1rlv3273) Units=km Length=0.0965626 bus1=p1rdm3309.1.2 bus2=p1rlv3273.1.2 switch=n enabled=y phases=2 Linecode=1P_UG_AL_4/0_Sweetbriar_2

New Line.l(r:p1rdm3309-p1rdt1686lv) Units=km Length=0.00857198 bus1=p1rdt1686lv.1.2 bus2=p1rdm3309.1.2 switch=n enabled=y phases=2 Linecode=1P_UG_AL_4/0_Sweetbriar_2

New Line.l(r:p1rdt1687lv-p1rlv3274) Units=km Length=0.001 bus1=p1rdt1687lv.1.2 bus2=p1rlv3274.1.2 switch=n enabled=y phases=2 Linecode=1P_OH_AL_4_Periwinkle_2

New Line.l(r:p1rdt1688lv-p1rlv3275) Units=km Length=0.0984868 bus1=p1rdt1688lv.1.2 bus2=p1rlv3275.1.2 switch=n enabled=y phases=2 Linecode=1P_UG_AL_4/0_Sweetbriar_2

New Line.l(r:p1rdt1688lv-p1rlv3276) Units=km Length=0.114578 bus1=p1rdt1688lv.1.2 bus2=p1rlv3276.1.2 switch=n enabled=y phases=2 Linecode=1P_UG_AL_4/0_Sweetbriar_2

New Line.l(r:p1rdm3313-p1rlv3277) Units=km Length=0.03253910000000001 bus1=p1rdm3313.1.2 bus2=p1rlv3277.1.2 switch=n enabled=y phases=2 Linecode=1P_UG_AL_1/0_Brenau_2

New Line.l(r:p1rdm3313-p1rdt1688lv) Units=km Length=0.00943891 bus1=p1rdt1688lv.1.2 bus2=p1rdm3313.1.2 switch=n enabled=y phases=2 Linecode=1P_UG_AL_1/0_Brenau_2

New Line.l(r:p1rdt1689lv-p1rlv3278) Units=km Length=0.045962600000000006 bus1=p1rdt1689lv.1.2 bus2=p1rlv3278.1.2 switch=n enabled=y phases=2 Linecode=1P_UG_AL_1/0_Brenau_2

New Line.l(r:p1rdt1690lv-p1rlv3279) Units=km Length=0.00798196 bus1=p1rdt1690lv.1.2 bus2=p1rlv3279.1.2 switch=n enabled=y phases=2 Linecode=1P_OH_AL_2/0_Rucina_2

New Line.l(r:p1rdt1691lv-p1rlv3280) Units=km Length=0.0307044 bus1=p1rdt1691lv.1.2 bus2=p1rlv3280.1.2 switch=n enabled=y phases=2 Linecode=1P_OH_AL_4/0_Zuzara_2

New Line.l(r:p1rdt1692lv-p1rlv3281) Units=km Length=0.001 bus1=p1rdt1692lv.1.2 bus2=p1rlv3281.1.2 switch=n enabled=y phases=2 Linecode=1P_OH_AL_4_Periwinkle_2

New Line.l(r:p1rdt2110lv-p1rlv4158) Units=km Length=0.0451813 bus1=p1rdt2110lv.1.2 bus2=p1rlv4158.1.2 switch=n enabled=y phases=2 Linecode=1P_OH_AL_4/0_Zuzara_2

New Line.l(r:p1rdt2110lv-p1rlv4159) Units=km Length=0.016341 bus1=p1rdt2110lv.1.2 bus2=p1rlv4159.1.2 switch=n enabled=y phases=2 Linecode=1P_OH_AL_2/0_Rucina_2

New Line.l(r:p1rdt2110lv-p1rlv4160) Units=km Length=0.0290579 bus1=p1rdt2110lv.1.2 bus2=p1rlv4160.1.2 switch=n enabled=y phases=2 Linecode=1P_OH_AL_4/0_Zuzara_2

New Line.l(r:p1rdt2111lv-p1rlv4161) Units=km Length=0.001 bus1=p1rdt2111lv.1.2 bus2=p1rlv4161.1.2 switch=n enabled=y phases=2 Linecode=1P_OH_AL_4_Periwinkle_2

New Line.l(r:p1rdm6038-p1rlv6013) Units=km Length=0.018165 bus1=p1rdm6038.1.2 bus2=p1rlv6013.1.2 switch=n enabled=y phases=2 Linecode=1P_OH_AL_2/0_Rucina_2

New Line.l(r:p1rdm6037-p1rlv6012) Units=km Length=0.0208995 bus1=p1rdm6037.1.2 bus2=p1rlv6012.1.2 switch=n enabled=y phases=2 Linecode=1P_OH_AL_2/0_Rucina_2

New Line.l(r:p1rdm6037-p1rdm6038) Units=km Length=0.0443367 bus1=p1rdm6038.1.2 bus2=p1rdm6037.1.2 switch=n enabled=y phases=2 Linecode=1P_OH_AL_4/0_Zuzara_2

New Line.l(r:p1rdm6038-p1rdt2985lv) Units=km Length=0.0115375 bus1=p1rdt2985lv.1.2 bus2=p1rdm6038.1.2 switch=n enabled=y phases=2 Linecode=1P_OH_AL_2/0_Rucina_2

New Line.l(r:p1rdm6039-p1rlv6014) Units=km Length=0.014297700000000002 bus1=p1rdm6039.1.2 bus2=p1rlv6014.1.2 switch=n enabled=y phases=2 Linecode=1P_OH_AL_2/0_Rucina_2

New Line.l(r:p1rdm6040-p1rlv6015) Units=km Length=0.0444085 bus1=p1rdm6040.1.2 bus2=p1rlv6015.1.2 switch=n enabled=y phases=2 Linecode=1P_OH_AL_4/0_Zuzara_2

New Line.l(r:p1rdm6039-p1rdm6040) Units=km Length=0.0285327 bus1=p1rdm6039.1.2 bus2=p1rdm6040.1.2 switch=n enabled=y phases=2 Linecode=1P_OH_AL_4/0_Zuzara_2

New Line.l(r:p1rdm6039-p1rdt2985lv) Units=km Length=0.011530900000000002 bus1=p1rdt2985lv.1.2 bus2=p1rdm6039.1.2 switch=n enabled=y phases=2 Linecode=1P_OH_AL_2/0_Rucina_2

New Line.l(r:p1rdm6041-p1rlv6016) Units=km Length=0.026230200000000002 bus1=p1rdm6041.1.2 bus2=p1rlv6016.1.2 switch=n enabled=y phases=2 Linecode=1P_OH_AL_2/0_Rucina_2

New Line.l(r:p1rdm6041-p1rdt2986lv) Units=km Length=0.014147100000000001 bus1=p1rdt2986lv.1.2 bus2=p1rdm6041.1.2 switch=n enabled=y phases=2 Linecode=1P_OH_AL_2/0_Rucina_2

New Line.l(r:p1rdm6042-p1rlv6030) Units=km Length=0.00697764 bus1=p1rdm6042.1.2 bus2=p1rlv6030.1.2 switch=n enabled=y phases=2 Linecode=1P_OH_AL_2/0_Rucina_2

New Line.l(r:p1rdm6042-p1rdt2986lv) Units=km Length=0.0175229 bus1=p1rdt2986lv.1.2 bus2=p1rdm6042.1.2 switch=n enabled=y phases=2 Linecode=1P_OH_AL_2/0_Rucina_2

New Line.l(r:p1rdm6056-p1rlv6029) Units=km Length=0.0248542 bus1=p1rdm6056.1.2 bus2=p1rlv6029.1.2 switch=n enabled=y phases=2 Linecode=1P_OH_AL_2/0_Rucina_2

New Line.l(r:p1rdm6056-p1rdt2993lv) Units=km Length=0.0347936 bus1=p1rdt2993lv.1.2 bus2=p1rdm6056.1.2 switch=n enabled=y phases=2 Linecode=1P_OH_AL_4/0_Zuzara_2

New Line.l(r:p1rdm6057-p1rlv6031) Units=km Length=0.0331166 bus1=p1rdm6057.1.2 bus2=p1rlv6031.1.2 switch=n enabled=y phases=2 Linecode=1P_OH_AL_4/0_Zuzara_2

New Line.l(r:p1rdm6057-p1rdt2993lv) Units=km Length=0.0312703 bus1=p1rdt2993lv.1.2 bus2=p1rdm6057.1.2 switch=n enabled=y phases=2 Linecode=1P_OH_AL_4/0_Zuzara_2

New Line.l(r:p1rdm6060-p1rlv6035) Units=km Length=0.0284366 bus1=p1rdm6060.1.2 bus2=p1rlv6035.1.2 switch=n enabled=y phases=2 Linecode=1P_OH_AL_4/0_Zuzara_2

New Line.l(r:p1rdm6064-p1rlv6039) Units=km Length=0.0308719 bus1=p1rdm6064.1.2 bus2=p1rlv6039.1.2 switch=n enabled=y phases=2 Linecode=1P_OH_AL_4/0_Zuzara_2

New Line.l(r:p1rdm6059-p1rlv6034) Units=km Length=0.0458896 bus1=p1rdm6059.1.2 bus2=p1rlv6034.1.2 switch=n enabled=y phases=2 Linecode=1P_OH_AL_4/0_Zuzara_2

New Line.l(r:p1rdm6058-p1rlv6033) Units=km Length=0.0324756 bus1=p1rdm6058.1.2 bus2=p1rlv6033.1.2 switch=n enabled=y phases=2 Linecode=1P_OH_AL_4/0_Zuzara_2

New Line.l(r:p1rdm6058-p1rdm6059) Units=km Length=0.00824662 bus1=p1rdm6059.1.2 bus2=p1rdm6058.1.2 switch=n enabled=y phases=2 Linecode=1P_OH_AL_2/0_Rucina_2

New Line.l(r:p1rdm6059-p1rdm6064) Units=km Length=0.006285000000000001 bus1=p1rdm6064.1.2 bus2=p1rdm6059.1.2 switch=n enabled=y phases=2 Linecode=1P_OH_AL_2/0_Rucina_2

New Line.l(r:p1rdm6060-p1rdm6064) Units=km Length=0.0192105 bus1=p1rdm6060.1.2 bus2=p1rdm6064.1.2 switch=n enabled=y phases=2 Linecode=1P_OH_AL_2/0_Rucina_2

New Line.l(r:p1rdm6060-p1rdt2994lv) Units=km Length=0.0192105 bus1=p1rdt2994lv.1.2 bus2=p1rdm6060.1.2 switch=n enabled=y phases=2 Linecode=1P_OH_AL_2/0_Rucina_2

New Line.l(r:p1rdm6061-p1rlv6036) Units=km Length=0.04328030000000001 bus1=p1rdm6061.1.2 bus2=p1rlv6036.1.2 switch=n enabled=y phases=2 Linecode=1P_OH_AL_4/0_Zuzara_2

New Line.l(r:p1rdm6062-p1rlv6037) Units=km Length=0.0551786 bus1=p1rdm6062.1.2 bus2=p1rlv6037.1.2 switch=n enabled=y phases=2 Linecode=1P_OH_AL_4/0_Zuzara_2

New Line.l(r:p1rdm6063-p1rlv6038) Units=km Length=0.0160758 bus1=p1rdm6063.1.2 bus2=p1rlv6038.1.2 switch=n enabled=y phases=2 Linecode=1P_OH_AL_2/0_Rucina_2

New Line.l(r:p1rdm6062-p1rdm6063) Units=km Length=0.0195619 bus1=p1rdm6062.1.2 bus2=p1rdm6063.1.2 switch=n enabled=y phases=2 Linecode=1P_OH_AL_2/0_Rucina_2

New Line.l(r:p1rdm6061-p1rdm6062) Units=km Length=0.014803000000000002 bus1=p1rdm6061.1.2 bus2=p1rdm6062.1.2 switch=n enabled=y phases=2 Linecode=1P_OH_AL_2/0_Rucina_2

New Line.l(r:p1rdm6061-p1rdt2994lv) Units=km Length=0.014798300000000002 bus1=p1rdt2994lv.1.2 bus2=p1rdm6061.1.2 switch=n enabled=y phases=2 Linecode=1P_OH_AL_2/0_Rucina_2

New Line.l(r:p1rdt2998lv-p1rlv6051) Units=km Length=0.0547137 bus1=p1rdt2998lv.1.2 bus2=p1rlv6051.1.2 switch=n enabled=y phases=2 Linecode=1P_OH_AL_4/0_Zuzara_2

New Line.l(r:p1rdm6079-p1rlv6052) Units=km Length=0.05434350000000001 bus1=p1rdm6079.1.2 bus2=p1rlv6052.1.2 switch=n enabled=y phases=2 Linecode=1P_OH_AL_4/0_Zuzara_2

New Line.l(r:p1rdm6079-p1rdt2998lv) Units=km Length=0.019600800000000005 bus1=p1rdt2998lv.1.2 bus2=p1rdm6079.1.2 switch=n enabled=y phases=2 Linecode=1P_OH_AL_2/0_Rucina_2

New Line.l(r:p1rdt2999lv-p1rlv6053) Units=km Length=0.0541513 bus1=p1rdt2999lv.1.2 bus2=p1rlv6053.1.2 switch=n enabled=y phases=2 Linecode=1P_OH_AL_4/0_Zuzara_2

New Line.l(r:p1rdt3000lv-p1rlv6054) Units=km Length=0.0498838 bus1=p1rdt3000lv.1.2 bus2=p1rlv6054.1.2 switch=n enabled=y phases=2 Linecode=1P_OH_AL_4/0_Zuzara_2

New Line.l(r:p1rdt3001lv-p1rlv6055) Units=km Length=0.0275489 bus1=p1rdt3001lv.1.2 bus2=p1rlv6055.1.2 switch=n enabled=y phases=2 Linecode=1P_OH_AL_4/0_Zuzara_2

New Line.l(r:p1rdm6083-p1rlv6056) Units=km Length=0.0384251 bus1=p1rdm6083.1.2 bus2=p1rlv6056.1.2 switch=n enabled=y phases=2 Linecode=1P_OH_AL_4/0_Zuzara_2

New Line.l(r:p1rdm6083-p1rdt3001lv) Units=km Length=0.0121517 bus1=p1rdt3001lv.1.2 bus2=p1rdm6083.1.2 switch=n enabled=y phases=2 Linecode=1P_OH_AL_2/0_Rucina_2

New Line.l(r:p1rdt3002lv-p1rlv6057) Units=km Length=0.0226105 bus1=p1rdt3002lv.1.2 bus2=p1rlv6057.1.2 switch=n enabled=y phases=2 Linecode=1P_OH_AL_2/0_Rucina_2

New Line.l(r:p1rdt3003lv-p1rlv6058) Units=km Length=0.00342077 bus1=p1rdt3003lv.1.2 bus2=p1rlv6058.1.2 switch=n enabled=y phases=2 Linecode=1P_OH_AL_4_Periwinkle_2

New Line.l(r:p1rdt3004lv-p1rlv6059) Units=km Length=0.0587657 bus1=p1rdt3004lv.1.2 bus2=p1rlv6059.1.2 switch=n enabled=y phases=2 Linecode=1P_OH_AL_4/0_Zuzara_2

New Line.l(r:p1rdm6087-p1rlv6060) Units=km Length=0.08849290000000001 bus1=p1rdm6087.1.2 bus2=p1rlv6060.1.2 switch=n enabled=y phases=2 Linecode=1P_OH_AL_4/0_Zuzara_2

New Line.l(r:p1rdm6087-p1rdt3004lv) Units=km Length=0.018317300000000005 bus1=p1rdt3004lv.1.2 bus2=p1rdm6087.1.2 switch=n enabled=y phases=2 Linecode=1P_OH_AL_2/0_Rucina_2

New Line.l(r:p1rdt3005lv-p1rlv6061) Units=km Length=0.0150132 bus1=p1rdt3005lv.1.2 bus2=p1rlv6061.1.2 switch=n enabled=y phases=2 Linecode=1P_OH_AL_2/0_Rucina_2

New Line.l(r:p1rdt3006lv-p1rlv6062) Units=km Length=0.0761599 bus1=p1rdt3006lv.1.2 bus2=p1rlv6062.1.2 switch=n enabled=y phases=2 Linecode=1P_OH_AL_4/0_Zuzara_2

New Line.l(r:p1rdt3007lv-p1rlv6063) Units=km Length=0.0427041 bus1=p1rdt3007lv.1.2 bus2=p1rlv6063.1.2 switch=n enabled=y phases=2 Linecode=1P_OH_AL_4/0_Zuzara_2

New Line.l(r:p1rdt3011lv-p1rlv6071) Units=km Length=0.0400961 bus1=p1rdt3011lv.1.2 bus2=p1rlv6071.1.2 switch=n enabled=y phases=2 Linecode=1P_OH_AL_4/0_Zuzara_2

New Line.l(r:p1rdt3011lv-p1rlv6073) Units=km Length=0.00188876 bus1=p1rdt3011lv.1.2 bus2=p1rlv6073.1.2 switch=n enabled=y phases=2 Linecode=1P_OH_AL_4_Periwinkle_2

New Line.l(r:p1rdm6099-p1rlv6072) Units=km Length=0.0278482 bus1=p1rdm6099.1.2 bus2=p1rlv6072.1.2 switch=n enabled=y phases=2 Linecode=1P_OH_AL_4/0_Zuzara_2

New Line.l(r:p1rdm6099-p1rdt3011lv) Units=km Length=0.0101276 bus1=p1rdt3011lv.1.2 bus2=p1rdm6099.1.2 switch=n enabled=y phases=2 Linecode=1P_OH_AL_2/0_Rucina_2

New Line.l(r:p1rdt3012lv-p1rlv6074) Units=km Length=0.0188624 bus1=p1rdt3012lv.1.2 bus2=p1rlv6074.1.2 switch=n enabled=y phases=2 Linecode=1P_OH_AL_2/0_Rucina_2

New Line.l(r:p1rdt3013lv-p1rlv6076) Units=km Length=0.00259717 bus1=p1rdt3013lv.1.2 bus2=p1rlv6076.1.2 switch=n enabled=y phases=2 Linecode=1P_OH_AL_4_Periwinkle_2

New Line.l(r:p1rdm6102-p1rlv6075) Units=km Length=0.0227357 bus1=p1rdm6102.1.2 bus2=p1rlv6075.1.2 switch=n enabled=y phases=2 Linecode=1P_OH_AL_2/0_Rucina_2

New Line.l(r:p1rdm6102-p1rlv6077) Units=km Length=0.015184300000000001 bus1=p1rdm6102.1.2 bus2=p1rlv6077.1.2 switch=n enabled=y phases=2 Linecode=1P_OH_AL_2/0_Rucina_2

New Line.l(r:p1rdm6102-p1rdt3013lv) Units=km Length=0.013445700000000001 bus1=p1rdt3013lv.1.2 bus2=p1rdm6102.1.2 switch=n enabled=y phases=2 Linecode=1P_OH_AL_2/0_Rucina_2

New Line.l(r:p1rdm6105-p1rlv6079) Units=km Length=0.00507427 bus1=p1rdm6105.1.2 bus2=p1rlv6079.1.2 switch=n enabled=y phases=2 Linecode=1P_OH_AL_2/0_Rucina_2

New Line.l(r:p1rdm6105-p1rdt3013lv) Units=km Length=0.044807200000000005 bus1=p1rdt3013lv.1.2 bus2=p1rdm6105.1.2 switch=n enabled=y phases=2 Linecode=1P_OH_AL_4/0_Zuzara_2

New Line.l(r:p1rdt3014lv-p1rlv6080) Units=km Length=0.00888173 bus1=p1rdt3014lv.1.2 bus2=p1rlv6080.1.2 switch=n enabled=y phases=2 Linecode=1P_OH_AL_2/0_Rucina_2

New Line.l(r:p1rdm6106-p1rlv6078) Units=km Length=0.00367992 bus1=p1rdm6106.1.2 bus2=p1rlv6078.1.2 switch=n enabled=y phases=2 Linecode=1P_OH_AL_4_Periwinkle_2

New Line.l(r:p1rdm6106-p1rdt3014lv) Units=km Length=0.024567000000000002 bus1=p1rdt3014lv.1.2 bus2=p1rdm6106.1.2 switch=n enabled=y phases=2 Linecode=1P_OH_AL_2/0_Rucina_2

New Line.l(r:p1rdm6108-p1rlv6083) Units=km Length=0.0244489 bus1=p1rdm6108.1.2 bus2=p1rlv6083.1.2 switch=n enabled=y phases=2 Linecode=1P_OH_AL_2/0_Rucina_2

New Line.l(r:p1rdm6108-p1rdt3014lv) Units=km Length=0.0174785 bus1=p1rdt3014lv.1.2 bus2=p1rdm6108.1.2 switch=n enabled=y phases=2 Linecode=1P_OH_AL_2/0_Rucina_2

New Line.l(r:p1rdt3015lv-p1rlv6081) Units=km Length=0.02486 bus1=p1rdt3015lv.1.2 bus2=p1rlv6081.1.2 switch=n enabled=y phases=2 Linecode=1P_OH_AL_2/0_Rucina_2

New Line.l(r:p1rdt3015lv-p1rlv6084) Units=km Length=0.0140328 bus1=p1rdt3015lv.1.2 bus2=p1rlv6084.1.2 switch=n enabled=y phases=2 Linecode=1P_OH_AL_2/0_Rucina_2

New Line.l(r:p1rdt3016lv-p1rlv6082) Units=km Length=0.0645574 bus1=p1rdt3016lv.1.2 bus2=p1rlv6082.1.2 switch=n enabled=y phases=2 Linecode=1P_OH_AL_4/0_Zuzara_2

New Line.l(r:p1rdt3017lv-p1rlv6085) Units=km Length=0.00536106 bus1=p1rdt3017lv.1.2 bus2=p1rlv6085.1.2 switch=n enabled=y phases=2 Linecode=1P_OH_AL_2/0_Rucina_2

New Line.l(r:p1rdt3018lv-p1rlv6086) Units=km Length=0.0614747 bus1=p1rdt3018lv.1.2 bus2=p1rlv6086.1.2 switch=n enabled=y phases=2 Linecode=1P_OH_AL_4/0_Zuzara_2

New Line.l(r:p1rdt3019lv-p1rlv6088) Units=km Length=0.0231325 bus1=p1rdt3019lv.1.2 bus2=p1rlv6088.1.2 switch=n enabled=y phases=2 Linecode=1P_OH_AL_2/0_Rucina_2

New Line.l(r:p1rdm6114-p1rlv6087) Units=km Length=0.0469631 bus1=p1rdm6114.1.2 bus2=p1rlv6087.1.2 switch=n enabled=y phases=2 Linecode=1P_OH_AL_4/0_Zuzara_2

New Line.l(r:p1rdm6114-p1rdt3019lv) Units=km Length=0.0184245 bus1=p1rdt3019lv.1.2 bus2=p1rdm6114.1.2 switch=n enabled=y phases=2 Linecode=1P_OH_AL_2/0_Rucina_2

New Line.l(r:p1rdt3020lv-p1rlv6089) Units=km Length=0.035397700000000004 bus1=p1rdt3020lv.1.2 bus2=p1rlv6089.1.2 switch=n enabled=y phases=2 Linecode=1P_OH_AL_4/0_Zuzara_2

New Line.l(r:p1rdt3021lv-p1rlv6090) Units=km Length=0.04084030000000001 bus1=p1rdt3021lv.1.2 bus2=p1rlv6090.1.2 switch=n enabled=y phases=2 Linecode=1P_OH_AL_4/0_Zuzara_2

New Line.l(r:p1rdt3210lv-p1rlv6516) Units=km Length=0.0242967 bus1=p1rdt3210lv.1.2 bus2=p1rlv6516.1.2 switch=n enabled=y phases=2 Linecode=1P_OH_AL_2/0_Rucina_2

New Line.l(r:p1rdt3211lv-p1rlv6517) Units=km Length=0.0272723 bus1=p1rdt3211lv.1.2 bus2=p1rlv6517.1.2 switch=n enabled=y phases=2 Linecode=1P_OH_AL_4/0_Zuzara_2

New Line.l(r:p1rdt3212lv-p1rlv6518) Units=km Length=0.00465911 bus1=p1rdt3212lv.1.2 bus2=p1rlv6518.1.2 switch=n enabled=y phases=2 Linecode=1P_OH_AL_2/0_Rucina_2

New Line.l(r:p1rdt3221lv-p1rlv6530) Units=km Length=0.0942531 bus1=p1rdt3221lv.1.2 bus2=p1rlv6530.1.2 switch=n enabled=y phases=2 Linecode=1P_OH_AL_4/0_Zuzara_2

New Line.l(r:p1rdt3222lv-p1rlv6531) Units=km Length=0.019514600000000003 bus1=p1rdt3222lv.1.2 bus2=p1rlv6531.1.2 switch=n enabled=y phases=2 Linecode=1P_OH_AL_2/0_Rucina_2

New Line.l(r:p1rdt3222lv-p1rlv6533) Units=km Length=0.0135361 bus1=p1rdt3222lv.1.2 bus2=p1rlv6533.1.2 switch=n enabled=y phases=2 Linecode=1P_OH_AL_2/0_Rucina_2

New Line.l(r:p1rdt3223lv-p1rlv6532) Units=km Length=0.0340704 bus1=p1rdt3223lv.1.2 bus2=p1rlv6532.1.2 switch=n enabled=y phases=2 Linecode=1P_OH_AL_4/0_Zuzara_2

New Line.l(r:p1rdm6580-p1rlv6535) Units=km Length=0.0214206 bus1=p1rdm6580.1.2 bus2=p1rlv6535.1.2 switch=n enabled=y phases=2 Linecode=1P_OH_AL_2/0_Rucina_2

New Line.l(r:p1rdm6580-p1rdt3225lv) Units=km Length=0.011602900000000001 bus1=p1rdt3225lv.1.2 bus2=p1rdm6580.1.2 switch=n enabled=y phases=2 Linecode=1P_OH_AL_2/0_Rucina_2

New Line.l(r:p1rdm6581-p1rlv6541) Units=km Length=0.0259846 bus1=p1rdm6581.1.2 bus2=p1rlv6541.1.2 switch=n enabled=y phases=2 Linecode=1P_OH_AL_2/0_Rucina_2

New Line.l(r:p1rdm6581-p1rdt3225lv) Units=km Length=0.0151207 bus1=p1rdt3225lv.1.2 bus2=p1rdm6581.1.2 switch=n enabled=y phases=2 Linecode=1P_OH_AL_2/0_Rucina_2

New Line.l(r:p1rdt3226lv-p1rlv6538) Units=km Length=0.0158271 bus1=p1rdt3226lv.1.2 bus2=p1rlv6538.1.2 switch=n enabled=y phases=2 Linecode=1P_UG_AL_1/0_Brenau_2

New Line.l(r:p1rdm6583-p1rlv6537) Units=km Length=0.0367752 bus1=p1rdm6583.1.2 bus2=p1rlv6537.1.2 switch=n enabled=y phases=2 Linecode=1P_UG_AL_1/0_Brenau_2

New Line.l(r:p1rdm6582-p1rlv6536) Units=km Length=0.0460084 bus1=p1rdm6582.1.2 bus2=p1rlv6536.1.2 switch=n enabled=y phases=2 Linecode=1P_UG_AL_1/0_Brenau_2

New Line.l(r:p1rdm6586-p1rlv6540) Units=km Length=0.0187238 bus1=p1rdm6586.1.2 bus2=p1rlv6540.1.2 switch=n enabled=y phases=2 Linecode=1P_UG_AL_1/0_Brenau_2

New Line.l(r:p1rdm6585-p1rlv6539) Units=km Length=0.0211752 bus1=p1rdm6585.1.2 bus2=p1rlv6539.1.2 switch=n enabled=y phases=2 Linecode=1P_UG_AL_1/0_Brenau_2

New Line.l(r:p1rdm6585-p1rdm6586) Units=km Length=0.018152500000000002 bus1=p1rdm6586.1.2 bus2=p1rdm6585.1.2 switch=n enabled=y phases=2 Linecode=1P_UG_AL_1/0_Brenau_2

New Line.l(r:p1rdm6582-p1rdm6586) Units=km Length=0.0178188 bus1=p1rdm6582.1.2 bus2=p1rdm6586.1.2 switch=n enabled=y phases=2 Linecode=1P_UG_AL_1/0_Brenau_2

New Line.l(r:p1rdm6582-p1rdm6583) Units=km Length=0.0089144 bus1=p1rdm6583.1.2 bus2=p1rdm6582.1.2 switch=n enabled=y phases=2 Linecode=1P_UG_AL_1/0_Brenau_2

New Line.l(r:p1rdm6583-p1rdt3226lv) Units=km Length=0.0089044 bus1=p1rdt3226lv.1.2 bus2=p1rdm6583.1.2 switch=n enabled=y phases=2 Linecode=1P_UG_AL_1/0_Brenau_2

New Line.l(r:p1rdm6587-p1rlv6549) Units=km Length=0.0885853 bus1=p1rdm6587.1.2 bus2=p1rlv6549.1.2 switch=n enabled=y phases=2 Linecode=1P_UG_AL_1/0_Brenau_2

New Line.l(r:p1rdm6587-p1rlv6553) Units=km Length=0.0138318 bus1=p1rdm6587.1.2 bus2=p1rlv6553.1.2 switch=n enabled=y phases=2 Linecode=1P_UG_AL_1/0_Brenau_2

New Line.l(r:p1rdm6587-p1rlv6554) Units=km Length=0.0155564 bus1=p1rdm6587.1.2 bus2=p1rlv6554.1.2 switch=n enabled=y phases=2 Linecode=1P_UG_AL_1/0_Brenau_2

New Line.l(r:p1rdm6590-p1rlv6552) Units=km Length=0.00923522 bus1=p1rdm6590.1.2 bus2=p1rlv6552.1.2 switch=n enabled=y phases=2 Linecode=1P_UG_AL_1/0_Brenau_2

New Line.l(r:p1rdm6588-p1rlv6550) Units=km Length=0.08864070000000002 bus1=p1rdm6588.1.2 bus2=p1rlv6550.1.2 switch=n enabled=y phases=2 Linecode=1P_UG_AL_1/0_Brenau_2

New Line.l(r:p1rdm6588-p1rlv6551) Units=km Length=0.0368126 bus1=p1rdm6588.1.2 bus2=p1rlv6551.1.2 switch=n enabled=y phases=2 Linecode=1P_UG_AL_1/0_Brenau_2

New Line.l(r:p1rdm6588-p1rdm6590) Units=km Length=0.00999025 bus1=p1rdm6590.1.2 bus2=p1rdm6588.1.2 switch=n enabled=y phases=2 Linecode=1P_UG_AL_1/0_Brenau_2

New Line.l(r:p1rdm6587-p1rdm6590) Units=km Length=0.00890409 bus1=p1rdm6587.1.2 bus2=p1rdm6590.1.2 switch=n enabled=y phases=2 Linecode=1P_UG_AL_1/0_Brenau_2

New Line.l(r:p1rdm6587-p1rdt3226lv) Units=km Length=0.0178288 bus1=p1rdt3226lv.1.2 bus2=p1rdm6587.1.2 switch=n enabled=y phases=2 Linecode=1P_UG_AL_4/0_Sweetbriar_2

New Line.l(r:p1rdt3227lv-p1rlv6548) Units=km Length=0.108313 bus1=p1rdt3227lv.1.2 bus2=p1rlv6548.1.2 switch=n enabled=y phases=2 Linecode=1P_OH_AL_4/0_Zuzara_2

New Line.l(r:p1rdm6593-p1rlv6542) Units=km Length=0.054184500000000003 bus1=p1rdm6593.1.2 bus2=p1rlv6542.1.2 switch=n enabled=y phases=2 Linecode=1P_OH_AL_4/0_Zuzara_2

New Line.l(r:p1rdm6593-p1rlv6543) Units=km Length=0.024515800000000004 bus1=p1rdm6593.1.2 bus2=p1rlv6543.1.2 switch=n enabled=y phases=2 Linecode=1P_OH_AL_2/0_Rucina_2

New Line.l(r:p1rdm6593-p1rlv6544) Units=km Length=0.0874252 bus1=p1rdm6593.1.2 bus2=p1rlv6544.1.2 switch=n enabled=y phases=2 Linecode=1P_OH_AL_4/0_Zuzara_2

New Line.l(r:p1rdm6593-p1rdt3227lv) Units=km Length=0.0191203 bus1=p1rdt3227lv.1.2 bus2=p1rdm6593.1.2 switch=n enabled=y phases=2 Linecode=1P_OH_AL_2/0_Rucina_2

New Line.l(r:p1rdm6597-p1rlv6546) Units=km Length=0.0900669 bus1=p1rdm6597.1.2 bus2=p1rlv6546.1.2 switch=n enabled=y phases=2 Linecode=1P_OH_AL_4/0_Zuzara_2

New Line.l(r:p1rdm6596-p1rlv6545) Units=km Length=0.0301179 bus1=p1rdm6596.1.2 bus2=p1rlv6545.1.2 switch=n enabled=y phases=2 Linecode=1P_OH_AL_4/0_Zuzara_2

New Line.l(r:p1rdm6596-p1rlv6547) Units=km Length=0.06451730000000001 bus1=p1rdm6596.1.2 bus2=p1rlv6547.1.2 switch=n enabled=y phases=2 Linecode=1P_OH_AL_4/0_Zuzara_2

New Line.l(r:p1rdm6596-p1rdm6597) Units=km Length=0.0191203 bus1=p1rdm6597.1.2 bus2=p1rdm6596.1.2 switch=n enabled=y phases=2 Linecode=1P_OH_AL_2/0_Rucina_2

New Line.l(r:p1rdm6597-p1rdt3227lv) Units=km Length=0.0191202 bus1=p1rdt3227lv.1.2 bus2=p1rdm6597.1.2 switch=n enabled=y phases=2 Linecode=1P_OH_AL_2/0_Rucina_2

New Line.l(r:p1rdt3235lv-p1rlv6565) Units=km Length=0.027517400000000004 bus1=p1rdt3235lv.1.2 bus2=p1rlv6565.1.2 switch=n enabled=y phases=2 Linecode=1P_OH_AL_4/0_Zuzara_2

New Line.l(r:p1rdm6617-p1rlv6566) Units=km Length=0.0380545 bus1=p1rdm6617.1.2 bus2=p1rlv6566.1.2 switch=n enabled=y phases=2 Linecode=1P_OH_AL_4/0_Zuzara_2

New Line.l(r:p1rdm6617-p1rdt3235lv) Units=km Length=0.015120800000000002 bus1=p1rdt3235lv.1.2 bus2=p1rdm6617.1.2 switch=n enabled=y phases=2 Linecode=1P_OH_AL_2/0_Rucina_2

New Line.l(r:p1rdm6618-p1rlv6567) Units=km Length=0.0248496 bus1=p1rdm6618.1.2 bus2=p1rlv6567.1.2 switch=n enabled=y phases=2 Linecode=1P_UG_AL_1/0_Brenau_2

New Line.l(r:p1rdm6618-p1rdt3235lv) Units=km Length=0.0302415 bus1=p1rdt3235lv.1.2 bus2=p1rdm6618.1.2 switch=n enabled=y phases=2 Linecode=1P_OH_AL_4/0_Zuzara_2

New Line.l(r:p1rdt3236lv-p1rlv6568) Units=km Length=0.00829001 bus1=p1rdt3236lv.1.2 bus2=p1rlv6568.1.2 switch=n enabled=y phases=2 Linecode=1P_OH_AL_2/0_Rucina_2

New Line.l(r:p1rdt3236lv-p1rlv6569) Units=km Length=0.00107564 bus1=p1rdt3236lv.1.2 bus2=p1rlv6569.1.2 switch=n enabled=y phases=2 Linecode=1P_OH_AL_4_Periwinkle_2

New Line.l(r:p1rdt3236lv-p1rlv6570) Units=km Length=0.00936053 bus1=p1rdt3236lv.1.2 bus2=p1rlv6570.1.2 switch=n enabled=y phases=2 Linecode=1P_OH_AL_2/0_Rucina_2

New Line.l(r:p1rdt3237lv-p1rlv6571) Units=km Length=0.0169584 bus1=p1rdt3237lv.1.2 bus2=p1rlv6571.1.2 switch=n enabled=y phases=2 Linecode=1P_OH_AL_2/0_Rucina_2

New Line.l(r:p1rdt3237lv-p1rlv6572) Units=km Length=0.0169584 bus1=p1rdt3237lv.1.2 bus2=p1rlv6572.1.2 switch=n enabled=y phases=2 Linecode=1P_OH_AL_2/0_Rucina_2

New Line.l(r:p1rdt3238lv-p1rlv6573) Units=km Length=0.001 bus1=p1rdt3238lv.1.2 bus2=p1rlv6573.1.2 switch=n enabled=y phases=2 Linecode=1P_OH_AL_4_Periwinkle_2

New Line.l(r:p1rdt3239lv-p1rlv6574) Units=km Length=0.0324133 bus1=p1rdt3239lv.1.2 bus2=p1rlv6574.1.2 switch=n enabled=y phases=2 Linecode=1P_OH_AL_4/0_Zuzara_2

New Line.l(r:p1rdt3240lv-p1rlv6576) Units=km Length=0.0148121 bus1=p1rdt3240lv.1.2 bus2=p1rlv6576.1.2 switch=n enabled=y phases=2 Linecode=1P_OH_AL_2/0_Rucina_2

New Line.l(r:p1rdm6626-p1rlv6575) Units=km Length=0.00789178 bus1=p1rdm6626.1.2 bus2=p1rlv6575.1.2 switch=n enabled=y phases=2 Linecode=1P_OH_AL_2/0_Rucina_2

New Line.l(r:p1rdm6626-p1rdt3240lv) Units=km Length=0.0129216 bus1=p1rdt3240lv.1.2 bus2=p1rdm6626.1.2 switch=n enabled=y phases=2 Linecode=1P_OH_AL_2/0_Rucina_2

New Line.l(r:p1rdt3241lv-p1rlv6577) Units=km Length=0.00888974 bus1=p1rdt3241lv.1.2 bus2=p1rlv6577.1.2 switch=n enabled=y phases=2 Linecode=1P_OH_AL_2/0_Rucina_2

New Line.l(r:p1rdt3242lv-p1rlv6578) Units=km Length=0.0431048 bus1=p1rdt3242lv.1.2 bus2=p1rlv6578.1.2 switch=n enabled=y phases=2 Linecode=1P_OH_AL_4/0_Zuzara_2

New Line.l(r:p1rdt3242lv-p1rlv6579) Units=km Length=0.06226400000000001 bus1=p1rdt3242lv.1.2 bus2=p1rlv6579.1.2 switch=n enabled=y phases=2 Linecode=1P_OH_AL_4/0_Zuzara_2

New Line.l(r:p1rdt3242lv-p1rlv6585) Units=km Length=0.0382046 bus1=p1rdt3242lv.1.2 bus2=p1rlv6585.1.2 switch=n enabled=y phases=2 Linecode=1P_OH_AL_4/0_Zuzara_2

New Line.l(r:p1rdm6632-p1rlv7376) Units=km Length=0.0531417 bus1=p1rdm6632.1.2 bus2=p1rlv7376.1.2 switch=n enabled=y phases=2 Linecode=1P_OH_AL_4/0_Zuzara_2

New Line.l(r:p1rdm6632-p1rdt3242lv) Units=km Length=0.0311294 bus1=p1rdt3242lv.1.2 bus2=p1rdm6632.1.2 switch=n enabled=y phases=2 Linecode=1P_OH_AL_4/0_Zuzara_2

New Line.l(r:p1rdt3243lv-p1rlv6582) Units=km Length=0.0198318 bus1=p1rdt3243lv.1.2 bus2=p1rlv6582.1.2 switch=n enabled=y phases=2 Linecode=1P_OH_AL_2/0_Rucina_2

New Line.l(r:p1rdm6633-p1rlv6580) Units=km Length=0.0401824 bus1=p1rdm6633.1.2 bus2=p1rlv6580.1.2 switch=n enabled=y phases=2 Linecode=1P_OH_AL_4/0_Zuzara_2

New Line.l(r:p1rdm6633-p1rdt3243lv) Units=km Length=0.0353557 bus1=p1rdt3243lv.1.2 bus2=p1rdm6633.1.2 switch=n enabled=y phases=2 Linecode=1P_OH_AL_4/0_Zuzara_2

New Line.l(r:p1rdm6635-p1rlv6583) Units=km Length=0.00461532 bus1=p1rdm6635.1.2 bus2=p1rlv6583.1.2 switch=n enabled=y phases=2 Linecode=1P_OH_AL_2/0_Rucina_2

New Line.l(r:p1rdm6636-p1rlv6584) Units=km Length=0.00197363 bus1=p1rdm6636.1.2 bus2=p1rlv6584.1.2 switch=n enabled=y phases=2 Linecode=1P_OH_AL_4_Periwinkle_2

New Line.l(r:p1rdm6635-p1rdm6636) Units=km Length=0.019731 bus1=p1rdm6635.1.2 bus2=p1rdm6636.1.2 switch=n enabled=y phases=2 Linecode=1P_OH_AL_2/0_Rucina_2

New Line.l(r:p1rdm6635-p1rdt3243lv) Units=km Length=0.017682800000000002 bus1=p1rdt3243lv.1.2 bus2=p1rdm6635.1.2 switch=n enabled=y phases=2 Linecode=1P_OH_AL_2/0_Rucina_2

New Line.l(r:p1rdt3244lv-p1rlv6581) Units=km Length=0.040796 bus1=p1rdt3244lv.1.2 bus2=p1rlv6581.1.2 switch=n enabled=y phases=2 Linecode=1P_OH_AL_4/0_Zuzara_2

New Line.l(r:p1rdt3245lv-p1rlv6586) Units=km Length=0.0666892 bus1=p1rdt3245lv.1.2 bus2=p1rlv6586.1.2 switch=n enabled=y phases=2 Linecode=1P_OH_AL_4/0_Zuzara_2

New Line.l(r:p1rdt3245lv-p1rlv6587) Units=km Length=0.0959632 bus1=p1rdt3245lv.1.2 bus2=p1rlv6587.1.2 switch=n enabled=y phases=2 Linecode=1P_OH_AL_4/0_Zuzara_2

New Line.l(r:p1rdt3246lv-p1rlv6588) Units=km Length=0.001 bus1=p1rdt3246lv.1.2 bus2=p1rlv6588.1.2 switch=n enabled=y phases=2 Linecode=1P_OH_AL_4_Periwinkle_2

New Line.l(r:p1rdt3247lv-p1rlv6589) Units=km Length=0.061438000000000006 bus1=p1rdt3247lv.1.2 bus2=p1rlv6589.1.2 switch=n enabled=y phases=2 Linecode=1P_OH_AL_4/0_Zuzara_2

New Line.l(r:p1rdt3247lv-p1rlv6590) Units=km Length=0.0817819 bus1=p1rdt3247lv.1.2 bus2=p1rlv6590.1.2 switch=n enabled=y phases=2 Linecode=1P_OH_AL_4/0_Zuzara_2

New Line.l(r:p1rdt3248lv-p1rlv6591) Units=km Length=0.0323081 bus1=p1rdt3248lv.1.2 bus2=p1rlv6591.1.2 switch=n enabled=y phases=2 Linecode=1P_OH_AL_4/0_Zuzara_2

New Line.l(r:p1rdt3249lv-p1rlv6592) Units=km Length=0.0451779 bus1=p1rdt3249lv.1.2 bus2=p1rlv6592.1.2 switch=n enabled=y phases=2 Linecode=1P_OH_AL_4/0_Zuzara_2

New Line.l(r:p1rdt3250lv-p1rlv6593) Units=km Length=0.0459193 bus1=p1rdt3250lv.1.2 bus2=p1rlv6593.1.2 switch=n enabled=y phases=2 Linecode=1P_OH_AL_4/0_Zuzara_2

New Line.l(r:p1rdt3251lv-p1rlv6594) Units=km Length=0.0547126 bus1=p1rdt3251lv.1.2 bus2=p1rlv6594.1.2 switch=n enabled=y phases=2 Linecode=1P_OH_AL_4/0_Zuzara_2

New Line.l(r:p1rdt3252lv-p1rlv6595) Units=km Length=0.0820099 bus1=p1rdt3252lv.1.2 bus2=p1rlv6595.1.2 switch=n enabled=y phases=2 Linecode=1P_OH_AL_4/0_Zuzara_2

New Line.l(r:p1rdt3254lv-p1rlv6598) Units=km Length=0.02323 bus1=p1rdt3254lv.1.2 bus2=p1rlv6598.1.2 switch=n enabled=y phases=2 Linecode=1P_OH_AL_2/0_Rucina_2

New Line.l(r:p1rdm6650-p1rlv6597) Units=km Length=0.0238881 bus1=p1rdm6650.1.2 bus2=p1rlv6597.1.2 switch=n enabled=y phases=2 Linecode=1P_OH_AL_2/0_Rucina_2

New Line.l(r:p1rdm6650-p1rdt3254lv) Units=km Length=0.039082200000000004 bus1=p1rdt3254lv.1.2 bus2=p1rdm6650.1.2 switch=n enabled=y phases=2 Linecode=1P_OH_AL_4/0_Zuzara_2

New Line.l(r:p1rdm6652-p1rlv6599) Units=km Length=0.0301712 bus1=p1rdm6652.1.2 bus2=p1rlv6599.1.2 switch=n enabled=y phases=2 Linecode=1P_OH_AL_4/0_Zuzara_2

New Line.l(r:p1rdm6652-p1rlv6600) Units=km Length=0.0107236 bus1=p1rdm6652.1.2 bus2=p1rlv6600.1.2 switch=n enabled=y phases=2 Linecode=1P_OH_AL_2/0_Rucina_2

New Line.l(r:p1rdm6652-p1rdt3254lv) Units=km Length=0.0159451 bus1=p1rdt3254lv.1.2 bus2=p1rdm6652.1.2 switch=n enabled=y phases=2 Linecode=1P_OH_AL_2/0_Rucina_2

New Line.l(r:p1rdm6654-p1rlv6601) Units=km Length=0.027998600000000002 bus1=p1rdm6654.1.2 bus2=p1rlv6601.1.2 switch=n enabled=y phases=2 Linecode=1P_OH_AL_4/0_Zuzara_2

New Line.l(r:p1rdm6654-p1rlv6603) Units=km Length=0.0358346 bus1=p1rdm6654.1.2 bus2=p1rlv6603.1.2 switch=n enabled=y phases=2 Linecode=1P_OH_AL_4/0_Zuzara_2

New Line.l(r:p1rdm6654-p1rdt3255lv) Units=km Length=0.0196461 bus1=p1rdt3255lv.1.2 bus2=p1rdm6654.1.2 switch=n enabled=y phases=2 Linecode=1P_OH_AL_2/0_Rucina_2

New Line.l(r:p1rdm6655-p1rlv6602) Units=km Length=0.007070450000000001 bus1=p1rdm6655.1.2 bus2=p1rlv6602.1.2 switch=n enabled=y phases=2 Linecode=1P_OH_AL_2/0_Rucina_2
