New Line.l(r:p6udm1108-p6ulv975) Units=km Length=0.015297500000000002 bus1=p6udm1108.1.2 bus2=p6ulv975.1.2 switch=n enabled=y phases=2 Linecode=1P_UG_AL_1/0_Brenau_2

New Line.l(r:p6udm1109-p6ulv977) Units=km Length=0.0113494 bus1=p6udm1109.1.2 bus2=p6ulv977.1.2 switch=n enabled=y phases=2 Linecode=1P_UG_AL_1/0_Brenau_2

New Line.l(r:p6udm1108-p6udm1109) Units=km Length=0.0158773 bus1=p6udm1108.1.2 bus2=p6udm1109.1.2 switch=n enabled=y phases=2 Linecode=1P_UG_AL_1/0_Brenau_2

New Line.l(r:p6udm1108-p6udt328lv) Units=km Length=0.0252787 bus1=p6udt328lv.1.2 bus2=p6udm1108.1.2 switch=n enabled=y phases=2 Linecode=1P_UG_AL_1/0_Brenau_2

New Line.l(r:p6udm1111-p6ulv13456) Units=km Length=0.0251121 bus1=p6udm1111.1.2 bus2=p6ulv13456.1.2 switch=n enabled=y phases=2 Linecode=1P_UG_AL_1/0_Brenau_2

New Line.l(r:p6udm1111-p6udt328lv) Units=km Length=0.06223940000000001 bus1=p6udt328lv.1.2 bus2=p6udm1111.1.2 switch=n enabled=y phases=2 Linecode=1P_UG_AL_1/0_Brenau_2

New Line.l(r:p6udm1112-p6ulv13491) Units=km Length=0.00609277 bus1=p6udm1112.1.2 bus2=p6ulv13491.1.2 switch=n enabled=y phases=2 Linecode=1P_UG_AL_1/0_Brenau_2

New Line.l(r:p6udm1110-p6ulv13453) Units=km Length=0.0225042 bus1=p6udm1110.1.2 bus2=p6ulv13453.1.2 switch=n enabled=y phases=2 Linecode=1P_UG_AL_1/0_Brenau_2

New Line.l(r:p6udm1110-p6udm1112) Units=km Length=0.0322268 bus1=p6udm1112.1.2 bus2=p6udm1110.1.2 switch=n enabled=y phases=2 Linecode=1P_UG_AL_1/0_Brenau_2

New Line.l(r:p6udm1112-p6udt328lv) Units=km Length=0.0353791 bus1=p6udt328lv.1.2 bus2=p6udm1112.1.2 switch=n enabled=y phases=2 Linecode=1P_UG_AL_1/0_Brenau_2

New Line.l(r:p6udm1113-p6ulv976) Units=km Length=0.00213413 bus1=p6udm1113.1.2 bus2=p6ulv976.1.2 switch=n enabled=y phases=2 Linecode=1P_UG_AL_1/0_Brenau_2

New Line.l(r:p6udm1114-p6ulv979) Units=km Length=0.0101731 bus1=p6udm1114.1.2 bus2=p6ulv979.1.2 switch=n enabled=y phases=2 Linecode=1P_UG_AL_1/0_Brenau_2

New Line.l(r:p6udm1113-p6udm1114) Units=km Length=0.0089627 bus1=p6udm1113.1.2 bus2=p6udm1114.1.2 switch=n enabled=y phases=2 Linecode=1P_UG_AL_1/0_Brenau_2

New Line.l(r:p6udm1113-p6udt329lv) Units=km Length=0.00896574 bus1=p6udt329lv.1.2 bus2=p6udm1113.1.2 switch=n enabled=y phases=2 Linecode=1P_UG_AL_2/0_Converse_2

New Line.l(r:p6udm1115-p6ulv9776) Units=km Length=0.0245805 bus1=p6udm1115.1.2 bus2=p6ulv9776.1.2 switch=n enabled=y phases=2 Linecode=1P_UG_AL_1/0_Brenau_2

New Line.l(r:p6udm1115-p6udt329lv) Units=km Length=0.0643606 bus1=p6udt329lv.1.2 bus2=p6udm1115.1.2 switch=n enabled=y phases=2 Linecode=1P_UG_AL_1/0_Brenau_2

New Line.l(r:p6udt330lv-p6ulv978) Units=km Length=0.00588766 bus1=p6udt330lv.1.2 bus2=p6ulv978.1.2 switch=n enabled=y phases=2 Linecode=1P_UG_AL_1/0_Brenau_2

New Line.l(r:p6udt1872lv-p6ulv5744) Units=km Length=0.00859257 bus1=p6udt1872lv.1.2 bus2=p6ulv5744.1.2 switch=n enabled=y phases=2 Linecode=1P_UG_AL_1/0_Brenau_2

New Line.l(r:p6udt1873lv-p6ulv5745) Units=km Length=0.00469622 bus1=p6udt1873lv.1.2 bus2=p6ulv5745.1.2 switch=n enabled=y phases=2 Linecode=1P_UG_AL_1/0_Brenau_2

New Line.l(r:p6udm6078-p6ulv5746) Units=km Length=0.006239270000000001 bus1=p6udm6078.1.2 bus2=p6ulv5746.1.2 switch=n enabled=y phases=2 Linecode=1P_UG_AL_1/0_Brenau_2

New Line.l(r:p6udm6078-p6udt1874lv) Units=km Length=0.0703512 bus1=p6udt1874lv.1.2 bus2=p6udm6078.1.2 switch=n enabled=y phases=2 Linecode=1P_UG_AL_1/0_Brenau_2

New Line.l(r:p6udm6079-p6ulv5747) Units=km Length=0.0110523 bus1=p6udm6079.1.2 bus2=p6ulv5747.1.2 switch=n enabled=y phases=2 Linecode=1P_UG_AL_1/0_Brenau_2

New Line.l(r:p6udm6079-p6ulv5748) Units=km Length=0.0259523 bus1=p6udm6079.1.2 bus2=p6ulv5748.1.2 switch=n enabled=y phases=2 Linecode=1P_UG_AL_1/0_Brenau_2

New Line.l(r:p6udm6079-p6udt1874lv) Units=km Length=0.0272285 bus1=p6udt1874lv.1.2 bus2=p6udm6079.1.2 switch=n enabled=y phases=2 Linecode=1P_UG_AL_1/0_Brenau_2

New Line.l(r:p6udm6082-p6ulv5750) Units=km Length=0.00562844 bus1=p6udm6082.1.2 bus2=p6ulv5750.1.2 switch=n enabled=y phases=2 Linecode=1P_UG_AL_1/0_Brenau_2

New Line.l(r:p6udm6081-p6ulv5749) Units=km Length=0.001 bus1=p6udm6081.1.2 bus2=p6ulv5749.1.2 switch=n enabled=y phases=2 Linecode=1P_UG_AL_1/0_Brenau_2

New Line.l(r:p6udm6081-p6udm6082) Units=km Length=0.0563606 bus1=p6udm6082.1.2 bus2=p6udm6081.1.2 switch=n enabled=y phases=2 Linecode=1P_UG_AL_1/0_Brenau_2

New Line.l(r:p6udm6082-p6udt1875lv) Units=km Length=0.0210581 bus1=p6udt1875lv.1.2 bus2=p6udm6082.1.2 switch=n enabled=y phases=2 Linecode=1P_UG_AL_1/0_Brenau_2

New Line.l(r:p6udm6083-p6ulv5751) Units=km Length=0.00274694 bus1=p6udm6083.1.2 bus2=p6ulv5751.1.2 switch=n enabled=y phases=2 Linecode=1P_UG_AL_1/0_Brenau_2

New Line.l(r:p6udm6084-p6ulv5752) Units=km Length=0.023309 bus1=p6udm6084.1.2 bus2=p6ulv5752.1.2 switch=n enabled=y phases=2 Linecode=1P_UG_AL_1/0_Brenau_2

New Line.l(r:p6udm6083-p6udm6084) Units=km Length=0.0292715 bus1=p6udm6083.1.2 bus2=p6udm6084.1.2 switch=n enabled=y phases=2 Linecode=1P_UG_AL_1/0_Brenau_2

New Line.l(r:p6udm6083-p6udt1875lv) Units=km Length=0.019517 bus1=p6udt1875lv.1.2 bus2=p6udm6083.1.2 switch=n enabled=y phases=2 Linecode=1P_UG_AL_1/0_Brenau_2

New Line.l(r:p6udm6085-p6ulv5753) Units=km Length=0.0121991 bus1=p6udm6085.1.2 bus2=p6ulv5753.1.2 switch=n enabled=y phases=2 Linecode=1P_UG_AL_1/0_Brenau_2

New Line.l(r:p6udm6086-p6ulv5754) Units=km Length=0.024074500000000002 bus1=p6udm6086.1.2 bus2=p6ulv5754.1.2 switch=n enabled=y phases=2 Linecode=1P_UG_AL_1/0_Brenau_2

New Line.l(r:p6udm6085-p6udm6086) Units=km Length=0.00987532 bus1=p6udm6085.1.2 bus2=p6udm6086.1.2 switch=n enabled=y phases=2 Linecode=1P_UG_AL_1/0_Brenau_2

New Line.l(r:p6udm6085-p6udt1876lv) Units=km Length=0.005143 bus1=p6udt1876lv.1.2 bus2=p6udm6085.1.2 switch=n enabled=y phases=2 Linecode=1P_UG_AL_1/0_Brenau_2

New Line.l(r:p6udm6087-p6ulv5755) Units=km Length=0.0329226 bus1=p6udm6087.1.2 bus2=p6ulv5755.1.2 switch=n enabled=y phases=2 Linecode=1P_UG_AL_1/0_Brenau_2

New Line.l(r:p6udm6087-p6udt1876lv) Units=km Length=0.0302077 bus1=p6udt1876lv.1.2 bus2=p6udm6087.1.2 switch=n enabled=y phases=2 Linecode=1P_UG_AL_1/0_Brenau_2

New Line.l(r:p6udm6090-p6ulv5768) Units=km Length=0.0064057 bus1=p6udm6090.1.2 bus2=p6ulv5768.1.2 switch=n enabled=y phases=2 Linecode=1P_UG_AL_1/0_Brenau_2

New Line.l(r:p6udm6088-p6ulv5756) Units=km Length=0.0497058 bus1=p6udm6088.1.2 bus2=p6ulv5756.1.2 switch=n enabled=y phases=2 Linecode=1P_UG_AL_1/0_Brenau_2

New Line.l(r:p6udm6089-p6ulv5767) Units=km Length=0.0063459 bus1=p6udm6089.1.2 bus2=p6ulv5767.1.2 switch=n enabled=y phases=2 Linecode=1P_UG_AL_1/0_Brenau_2

New Line.l(r:p6udm6088-p6udm6089) Units=km Length=0.0364134 bus1=p6udm6088.1.2 bus2=p6udm6089.1.2 switch=n enabled=y phases=2 Linecode=1P_UG_AL_1/0_Brenau_2

New Line.l(r:p6udm6088-p6udm6090) Units=km Length=0.00928765 bus1=p6udm6090.1.2 bus2=p6udm6088.1.2 switch=n enabled=y phases=2 Linecode=1P_UG_AL_1/0_Brenau_2

New Line.l(r:p6udm6090-p6udt1877lv) Units=km Length=0.00929586 bus1=p6udt1877lv.1.2 bus2=p6udm6090.1.2 switch=n enabled=y phases=2 Linecode=1P_UG_AL_1/0_Brenau_2

New Line.l(r:p6udm6091-p6ulv5769) Units=km Length=0.0032810100000000004 bus1=p6udm6091.1.2 bus2=p6ulv5769.1.2 switch=n enabled=y phases=2 Linecode=1P_UG_AL_1/0_Brenau_2

New Line.l(r:p6udm6092-p6ulv5770) Units=km Length=0.0032383 bus1=p6udm6092.1.2 bus2=p6ulv5770.1.2 switch=n enabled=y phases=2 Linecode=1P_UG_AL_1/0_Brenau_2

New Line.l(r:p6udm6091-p6udm6092) Units=km Length=0.0381063 bus1=p6udm6091.1.2 bus2=p6udm6092.1.2 switch=n enabled=y phases=2 Linecode=1P_UG_AL_1/0_Brenau_2

New Line.l(r:p6udm6091-p6udt1877lv) Units=km Length=0.0173225 bus1=p6udt1877lv.1.2 bus2=p6udm6091.1.2 switch=n enabled=y phases=2 Linecode=1P_UG_AL_1/0_Brenau_2

New Line.l(r:p6udt1878lv-p6ulv5757) Units=km Length=0.00477462 bus1=p6udt1878lv.1.2 bus2=p6ulv5757.1.2 switch=n enabled=y phases=2 Linecode=1P_UG_AL_1/0_Brenau_2

New Line.l(r:p6udm6094-p6ulv5758) Units=km Length=0.0061391 bus1=p6udm6094.1.2 bus2=p6ulv5758.1.2 switch=n enabled=y phases=2 Linecode=1P_UG_AL_1/0_Brenau_2

New Line.l(r:p6udm6094-p6ulv5759) Units=km Length=0.0188711 bus1=p6udm6094.1.2 bus2=p6ulv5759.1.2 switch=n enabled=y phases=2 Linecode=1P_UG_AL_1/0_Brenau_2

New Line.l(r:p6udm6094-p6udt1879lv) Units=km Length=0.00931077 bus1=p6udt1879lv.1.2 bus2=p6udm6094.1.2 switch=n enabled=y phases=2 Linecode=1P_UG_AL_1/0_Brenau_2

New Line.l(r:p6udm6096-p6ulv5760) Units=km Length=0.0128824 bus1=p6udm6096.1.2 bus2=p6ulv5760.1.2 switch=n enabled=y phases=2 Linecode=1P_UG_AL_1/0_Brenau_2

New Line.l(r:p6udm6096-p6udt1879lv) Units=km Length=0.0495271 bus1=p6udt1879lv.1.2 bus2=p6udm6096.1.2 switch=n enabled=y phases=2 Linecode=1P_UG_AL_1/0_Brenau_2

New Line.l(r:p6udm6098-p6ulv5762) Units=km Length=0.00679777 bus1=p6udm6098.1.2 bus2=p6ulv5762.1.2 switch=n enabled=y phases=2 Linecode=1P_UG_AL_1/0_Brenau_2

New Line.l(r:p6udm6097-p6ulv5761) Units=km Length=0.00237447 bus1=p6udm6097.1.2 bus2=p6ulv5761.1.2 switch=n enabled=y phases=2 Linecode=1P_UG_AL_1/0_Brenau_2

New Line.l(r:p6udm6097-p6udm6098) Units=km Length=0.0348959 bus1=p6udm6098.1.2 bus2=p6udm6097.1.2 switch=n enabled=y phases=2 Linecode=1P_UG_AL_1/0_Brenau_2

New Line.l(r:p6udm6098-p6udt1880lv) Units=km Length=0.0220851 bus1=p6udt1880lv.1.2 bus2=p6udm6098.1.2 switch=n enabled=y phases=2 Linecode=1P_UG_AL_1/0_Brenau_2

New Line.l(r:p6udm6099-p6ulv5763) Units=km Length=0.00601752 bus1=p6udm6099.1.2 bus2=p6ulv5763.1.2 switch=n enabled=y phases=2 Linecode=1P_UG_AL_1/0_Brenau_2

New Line.l(r:p6udm6100-p6ulv5764) Units=km Length=0.00282804 bus1=p6udm6100.1.2 bus2=p6ulv5764.1.2 switch=n enabled=y phases=2 Linecode=1P_UG_AL_1/0_Brenau_2

New Line.l(r:p6udm6099-p6udm6100) Units=km Length=0.0414018 bus1=p6udm6099.1.2 bus2=p6udm6100.1.2 switch=n enabled=y phases=2 Linecode=1P_UG_AL_1/0_Brenau_2

New Line.l(r:p6udm6099-p6udt1880lv) Units=km Length=0.0208936 bus1=p6udt1880lv.1.2 bus2=p6udm6099.1.2 switch=n enabled=y phases=2 Linecode=1P_UG_AL_1/0_Brenau_2

New Line.l(r:p6udm6101-p6ulv5765) Units=km Length=0.007337880000000001 bus1=p6udm6101.1.2 bus2=p6ulv5765.1.2 switch=n enabled=y phases=2 Linecode=1P_UG_AL_1/0_Brenau_2

New Line.l(r:p6udm6101-p6udt1881lv) Units=km Length=0.0363718 bus1=p6udt1881lv.1.2 bus2=p6udm6101.1.2 switch=n enabled=y phases=2 Linecode=1P_UG_AL_1/0_Brenau_2

New Line.l(r:p6udm6102-p6ulv5766) Units=km Length=0.0202659 bus1=p6udm6102.1.2 bus2=p6ulv5766.1.2 switch=n enabled=y phases=2 Linecode=1P_UG_AL_1/0_Brenau_2

New Line.l(r:p6udm6102-p6udt1881lv) Units=km Length=0.0774461 bus1=p6udt1881lv.1.2 bus2=p6udm6102.1.2 switch=n enabled=y phases=2 Linecode=1P_UG_AL_1/0_Brenau_2

New Line.l(r:p6udm6104-p6ulv5772) Units=km Length=0.0130928 bus1=p6udm6104.1.2 bus2=p6ulv5772.1.2 switch=n enabled=y phases=2 Linecode=1P_UG_AL_1/0_Brenau_2

New Line.l(r:p6udm6103-p6ulv5771) Units=km Length=0.0126798 bus1=p6udm6103.1.2 bus2=p6ulv5771.1.2 switch=n enabled=y phases=2 Linecode=1P_UG_AL_1/0_Brenau_2

New Line.l(r:p6udm6108-p6ulv5823) Units=km Length=0.0129368 bus1=p6udm6108.1.2 bus2=p6ulv5823.1.2 switch=n enabled=y phases=2 Linecode=1P_UG_AL_1/0_Brenau_2

New Line.l(r:p6udm6103-p6udm6108) Units=km Length=0.0440055 bus1=p6udm6103.1.2 bus2=p6udm6108.1.2 switch=n enabled=y phases=2 Linecode=1P_UG_AL_1/0_Brenau_2

New Line.l(r:p6udm6103-p6udm6104) Units=km Length=0.0169608 bus1=p6udm6104.1.2 bus2=p6udm6103.1.2 switch=n enabled=y phases=2 Linecode=1P_UG_AL_1/0_Brenau_2

New Line.l(r:p6udm6105-p6ulv5773) Units=km Length=0.0164149 bus1=p6udm6105.1.2 bus2=p6ulv5773.1.2 switch=n enabled=y phases=2 Linecode=1P_UG_AL_1/0_Brenau_2

New Line.l(r:p6udm6104-p6udm6105) Units=km Length=0.0814233 bus1=p6udm6104.1.2 bus2=p6udm6105.1.2 switch=n enabled=y phases=2 Linecode=1P_UG_AL_1/0_Brenau_2

New Line.l(r:p6udm6104-p6udt1882lv) Units=km Length=0.00862005 bus1=p6udt1882lv.1.2 bus2=p6udm6104.1.2 switch=n enabled=y phases=2 Linecode=1P_UG_AL_1/0_Brenau_2

New Line.l(r:p6udm6106-p6ulv5774) Units=km Length=0.0118322 bus1=p6udm6106.1.2 bus2=p6ulv5774.1.2 switch=n enabled=y phases=2 Linecode=1P_UG_AL_1/0_Brenau_2

New Line.l(r:p6udm6106-p6ulv5822) Units=km Length=0.0141823 bus1=p6udm6106.1.2 bus2=p6ulv5822.1.2 switch=n enabled=y phases=2 Linecode=1P_UG_AL_1/0_Brenau_2

New Line.l(r:p6udm6106-p6udt1882lv) Units=km Length=0.0186412 bus1=p6udt1882lv.1.2 bus2=p6udm6106.1.2 switch=n enabled=y phases=2 Linecode=1P_UG_AL_1/0_Brenau_2

New Line.l(r:p6udm6110-p6ulv5776) Units=km Length=0.0139345 bus1=p6udm6110.1.2 bus2=p6ulv5776.1.2 switch=n enabled=y phases=2 Linecode=1P_UG_AL_1/0_Brenau_2

New Line.l(r:p6udm6109-p6ulv5775) Units=km Length=0.0144404 bus1=p6udm6109.1.2 bus2=p6ulv5775.1.2 switch=n enabled=y phases=2 Linecode=1P_UG_AL_1/0_Brenau_2

New Line.l(r:p6udm6109-p6ulv5828) Units=km Length=0.00851918 bus1=p6udm6109.1.2 bus2=p6ulv5828.1.2 switch=n enabled=y phases=2 Linecode=1P_UG_AL_1/0_Brenau_2

New Line.l(r:p6udm6109-p6udm6110) Units=km Length=0.0186459 bus1=p6udm6110.1.2 bus2=p6udm6109.1.2 switch=n enabled=y phases=2 Linecode=1P_UG_AL_1/0_Brenau_2

New Line.l(r:p6udm6114-p6ulv5821) Units=km Length=0.00931228 bus1=p6udm6114.1.2 bus2=p6ulv5821.1.2 switch=n enabled=y phases=2 Linecode=1P_UG_AL_1/0_Brenau_2

New Line.l(r:p6udm6115-p6ulv5825) Units=km Length=0.0184796 bus1=p6udm6115.1.2 bus2=p6ulv5825.1.2 switch=n enabled=y phases=2 Linecode=1P_UG_AL_1/0_Brenau_2

New Line.l(r:p6udm6114-p6udm6115) Units=km Length=0.013503500000000002 bus1=p6udm6114.1.2 bus2=p6udm6115.1.2 switch=n enabled=y phases=2 Linecode=1P_UG_AL_1/0_Brenau_2

New Line.l(r:p6udm6110-p6udm6114) Units=km Length=0.0341234 bus1=p6udm6110.1.2 bus2=p6udm6114.1.2 switch=n enabled=y phases=2 Linecode=1P_UG_AL_1/0_Brenau_2

New Line.l(r:p6udm6110-p6udt1883lv) Units=km Length=0.00983419 bus1=p6udt1883lv.1.2 bus2=p6udm6110.1.2 switch=n enabled=y phases=2 Linecode=1P_UG_AL_1/0_Brenau_2

New Line.l(r:p6udm6111-p6ulv5777) Units=km Length=0.0100601 bus1=p6udm6111.1.2 bus2=p6ulv5777.1.2 switch=n enabled=y phases=2 Linecode=1P_UG_AL_1/0_Brenau_2

New Line.l(r:p6udm6112-p6ulv5778) Units=km Length=0.0121923 bus1=p6udm6112.1.2 bus2=p6ulv5778.1.2 switch=n enabled=y phases=2 Linecode=1P_UG_AL_1/0_Brenau_2

New Line.l(r:p6udm6112-p6ulv5779) Units=km Length=0.0195918 bus1=p6udm6112.1.2 bus2=p6ulv5779.1.2 switch=n enabled=y phases=2 Linecode=1P_UG_AL_1/0_Brenau_2

New Line.l(r:p6udm6111-p6udm6112) Units=km Length=0.0196684 bus1=p6udm6111.1.2 bus2=p6udm6112.1.2 switch=n enabled=y phases=2 Linecode=1P_UG_AL_1/0_Brenau_2

New Line.l(r:p6udm6111-p6udt1883lv) Units=km Length=0.0196724 bus1=p6udt1883lv.1.2 bus2=p6udm6111.1.2 switch=n enabled=y phases=2 Linecode=1P_UG_AL_1/0_Brenau_2

New Line.l(r:p6udt1884lv-p6ulv5782) Units=km Length=0.0367322 bus1=p6udt1884lv.1.2 bus2=p6ulv5782.1.2 switch=n enabled=y phases=2 Linecode=1P_UG_AL_1/0_Brenau_2

New Line.l(r:p6udt1884lv-p6ulv5814) Units=km Length=0.011682000000000001 bus1=p6udt1884lv.1.2 bus2=p6ulv5814.1.2 switch=n enabled=y phases=2 Linecode=1P_UG_AL_1/0_Brenau_2

New Line.l(r:p6udm6117-p6ulv5780) Units=km Length=0.015806 bus1=p6udm6117.1.2 bus2=p6ulv5780.1.2 switch=n enabled=y phases=2 Linecode=1P_UG_AL_1/0_Brenau_2

New Line.l(r:p6udm6117-p6ulv5815) Units=km Length=0.0108669 bus1=p6udm6117.1.2 bus2=p6ulv5815.1.2 switch=n enabled=y phases=2 Linecode=1P_UG_AL_1/0_Brenau_2

New Line.l(r:p6udm6124-p6ulv5816) Units=km Length=0.013106100000000002 bus1=p6udm6124.1.2 bus2=p6ulv5816.1.2 switch=n enabled=y phases=2 Linecode=1P_UG_AL_1/0_Brenau_2

New Line.l(r:p6udm6117-p6udm6124) Units=km Length=0.0180818 bus1=p6udm6117.1.2 bus2=p6udm6124.1.2 switch=n enabled=y phases=2 Linecode=1P_UG_AL_1/0_Brenau_2

New Line.l(r:p6udm6117-p6udt1884lv) Units=km Length=0.0180729 bus1=p6udt1884lv.1.2 bus2=p6udm6117.1.2 switch=n enabled=y phases=2 Linecode=1P_UG_AL_1/0_Brenau_2

New Line.l(r:p6udm6118-p6ulv5781) Units=km Length=0.0179756 bus1=p6udm6118.1.2 bus2=p6ulv5781.1.2 switch=n enabled=y phases=2 Linecode=1P_UG_AL_1/0_Brenau_2

New Line.l(r:p6udm6118-p6ulv5813) Units=km Length=0.0150912 bus1=p6udm6118.1.2 bus2=p6ulv5813.1.2 switch=n enabled=y phases=2 Linecode=1P_UG_AL_1/0_Brenau_2

New Line.l(r:p6udm6120-p6ulv5783) Units=km Length=0.0287746 bus1=p6udm6120.1.2 bus2=p6ulv5783.1.2 switch=n enabled=y phases=2 Linecode=1P_UG_AL_1/0_Brenau_2

New Line.l(r:p6udm6118-p6udm6120) Units=km Length=0.00838762 bus1=p6udm6118.1.2 bus2=p6udm6120.1.2 switch=n enabled=y phases=2 Linecode=1P_UG_AL_1/0_Brenau_2

New Line.l(r:p6udm6118-p6udt1884lv) Units=km Length=0.0174218 bus1=p6udt1884lv.1.2 bus2=p6udm6118.1.2 switch=n enabled=y phases=2 Linecode=1P_UG_AL_1/0_Brenau_2

New Line.l(r:p6udt1885lv-p6ulv5803) Units=km Length=0.0137373 bus1=p6udt1885lv.1.2 bus2=p6ulv5803.1.2 switch=n enabled=y phases=2 Linecode=1P_UG_AL_1/0_Brenau_2

New Line.l(r:p6udm6127-p6ulv5786) Units=km Length=0.0122768 bus1=p6udm6127.1.2 bus2=p6ulv5786.1.2 switch=n enabled=y phases=2 Linecode=1P_UG_AL_1/0_Brenau_2

New Line.l(r:p6udm6127-p6ulv5788) Units=km Length=0.0316469 bus1=p6udm6127.1.2 bus2=p6ulv5788.1.2 switch=n enabled=y phases=2 Linecode=1P_UG_AL_1/0_Brenau_2

New Line.l(r:p6udm6127-p6ulv5805) Units=km Length=0.0144064 bus1=p6udm6127.1.2 bus2=p6ulv5805.1.2 switch=n enabled=y phases=2 Linecode=1P_UG_AL_1/0_Brenau_2

New Line.l(r:p6udm6125-p6ulv5784) Units=km Length=0.0144844 bus1=p6udm6125.1.2 bus2=p6ulv5784.1.2 switch=n enabled=y phases=2 Linecode=1P_UG_AL_1/0_Brenau_2

New Line.l(r:p6udm6125-p6ulv5785) Units=km Length=0.0330095 bus1=p6udm6125.1.2 bus2=p6ulv5785.1.2 switch=n enabled=y phases=2 Linecode=1P_UG_AL_1/0_Brenau_2

New Line.l(r:p6udm6138-p6ulv5806) Units=km Length=0.0149605 bus1=p6udm6138.1.2 bus2=p6ulv5806.1.2 switch=n enabled=y phases=2 Linecode=1P_UG_AL_1/0_Brenau_2

New Line.l(r:p6udm6139-p6ulv5807) Units=km Length=0.0134621 bus1=p6udm6139.1.2 bus2=p6ulv5807.1.2 switch=n enabled=y phases=2 Linecode=1P_UG_AL_1/0_Brenau_2

New Line.l(r:p6udm6138-p6udm6139) Units=km Length=0.0118049 bus1=p6udm6138.1.2 bus2=p6udm6139.1.2 switch=n enabled=y phases=2 Linecode=1P_UG_AL_1/0_Brenau_2

New Line.l(r:p6udm6125-p6udm6138) Units=km Length=0.00990923 bus1=p6udm6125.1.2 bus2=p6udm6138.1.2 switch=n enabled=y phases=2 Linecode=1P_UG_AL_1/0_Brenau_2

New Line.l(r:p6udm6125-p6udm6127) Units=km Length=0.019074 bus1=p6udm6127.1.2 bus2=p6udm6125.1.2 switch=n enabled=y phases=2 Linecode=1P_UG_AL_1/0_Brenau_2

New Line.l(r:p6udm6127-p6udt1885lv) Units=km Length=0.0091648 bus1=p6udt1885lv.1.2 bus2=p6udm6127.1.2 switch=n enabled=y phases=2 Linecode=1P_UG_AL_4/0_Sweetbriar_2

New Line.l(r:p6udm6128-p6ulv5787) Units=km Length=0.0124773 bus1=p6udm6128.1.2 bus2=p6ulv5787.1.2 switch=n enabled=y phases=2 Linecode=1P_UG_AL_1/0_Brenau_2

New Line.l(r:p6udm6128-p6ulv5804) Units=km Length=0.0296952 bus1=p6udm6128.1.2 bus2=p6ulv5804.1.2 switch=n enabled=y phases=2 Linecode=1P_UG_AL_1/0_Brenau_2

New Line.l(r:p6udm6130-p6ulv5789) Units=km Length=0.0119628 bus1=p6udm6130.1.2 bus2=p6ulv5789.1.2 switch=n enabled=y phases=2 Linecode=1P_UG_AL_1/0_Brenau_2

New Line.l(r:p6udm6130-p6ulv5801) Units=km Length=0.0139326 bus1=p6udm6130.1.2 bus2=p6ulv5801.1.2 switch=n enabled=y phases=2 Linecode=1P_UG_AL_1/0_Brenau_2

New Line.l(r:p6udm6133-p6ulv5800) Units=km Length=0.0107531 bus1=p6udm6133.1.2 bus2=p6ulv5800.1.2 switch=n enabled=y phases=2 Linecode=1P_UG_AL_1/0_Brenau_2

New Line.l(r:p6udm6131-p6ulv5797) Units=km Length=0.013457500000000002 bus1=p6udm6131.1.2 bus2=p6ulv5797.1.2 switch=n enabled=y phases=2 Linecode=1P_UG_AL_1/0_Brenau_2

New Line.l(r:p6udm6131-p6ulv5799) Units=km Length=0.00603075 bus1=p6udm6131.1.2 bus2=p6ulv5799.1.2 switch=n enabled=y phases=2 Linecode=1P_UG_AL_1/0_Brenau_2

New Line.l(r:p6udm6131-p6udm6133) Units=km Length=0.03754400000000001 bus1=p6udm6133.1.2 bus2=p6udm6131.1.2 switch=n enabled=y phases=2 Linecode=1P_UG_AL_1/0_Brenau_2

New Line.l(r:p6udm6130-p6udm6133) Units=km Length=0.064802 bus1=p6udm6130.1.2 bus2=p6udm6133.1.2 switch=n enabled=y phases=2 Linecode=1P_UG_AL_1/0_Brenau_2

New Line.l(r:p6udm6128-p6udm6130) Units=km Length=0.0091648 bus1=p6udm6128.1.2 bus2=p6udm6130.1.2 switch=n enabled=y phases=2 Linecode=1P_UG_AL_2/0_Converse_2

New Line.l(r:p6udm6128-p6udt1885lv) Units=km Length=0.0091648 bus1=p6udt1885lv.1.2 bus2=p6udm6128.1.2 switch=n enabled=y phases=2 Linecode=1P_UG_AL_4/0_Sweetbriar_2

New Line.l(r:p6udm6142-p6ulv5792) Units=km Length=0.0109069 bus1=p6udm6142.1.2 bus2=p6ulv5792.1.2 switch=n enabled=y phases=2 Linecode=1P_UG_AL_1/0_Brenau_2

New Line.l(r:p6udm6140-p6ulv5790) Units=km Length=0.0124738 bus1=p6udm6140.1.2 bus2=p6ulv5790.1.2 switch=n enabled=y phases=2 Linecode=1P_UG_AL_1/0_Brenau_2

New Line.l(r:p6udm6140-p6ulv5791) Units=km Length=0.0377915 bus1=p6udm6140.1.2 bus2=p6ulv5791.1.2 switch=n enabled=y phases=2 Linecode=1P_UG_AL_1/0_Brenau_2

New Line.l(r:p6udm6140-p6udm6142) Units=km Length=0.0091648 bus1=p6udm6142.1.2 bus2=p6udm6140.1.2 switch=n enabled=y phases=2 Linecode=1P_UG_AL_1/0_Brenau_2

New Line.l(r:p6udm6142-p6udt1886lv) Units=km Length=0.00946725 bus1=p6udt1886lv.1.2 bus2=p6udm6142.1.2 switch=n enabled=y phases=2 Linecode=1P_UG_AL_1/0_Brenau_2

New Line.l(r:p6udm6143-p6ulv5793) Units=km Length=0.012412300000000001 bus1=p6udm6143.1.2 bus2=p6ulv5793.1.2 switch=n enabled=y phases=2 Linecode=1P_UG_AL_1/0_Brenau_2

New Line.l(r:p6udm6144-p6ulv5794) Units=km Length=0.011120800000000002 bus1=p6udm6144.1.2 bus2=p6ulv5794.1.2 switch=n enabled=y phases=2 Linecode=1P_UG_AL_1/0_Brenau_2

New Line.l(r:p6udm6144-p6ulv5798) Units=km Length=0.011115100000000001 bus1=p6udm6144.1.2 bus2=p6ulv5798.1.2 switch=n enabled=y phases=2 Linecode=1P_UG_AL_1/0_Brenau_2

New Line.l(r:p6udm6143-p6udm6144) Units=km Length=0.0189345 bus1=p6udm6143.1.2 bus2=p6udm6144.1.2 switch=n enabled=y phases=2 Linecode=1P_UG_AL_1/0_Brenau_2

New Line.l(r:p6udm6143-p6udt1886lv) Units=km Length=0.00946725 bus1=p6udt1886lv.1.2 bus2=p6udm6143.1.2 switch=n enabled=y phases=2 Linecode=1P_UG_AL_1/0_Brenau_2

New Line.l(r:p6udt1888lv-p6ulv5796) Units=km Length=0.0253517 bus1=p6udt1888lv.1.2 bus2=p6ulv5796.1.2 switch=n enabled=y phases=2 Linecode=1P_UG_AL_1/0_Brenau_2

New Line.l(r:p6udt1889lv-p6ulv5802) Units=km Length=0.0122334 bus1=p6udt1889lv.1.2 bus2=p6ulv5802.1.2 switch=n enabled=y phases=2 Linecode=1P_UG_AL_1/0_Brenau_2

New Line.l(r:p6udt1889lv-p6ulv5848) Units=km Length=0.0198995 bus1=p6udt1889lv.1.2 bus2=p6ulv5848.1.2 switch=n enabled=y phases=2 Linecode=1P_UG_AL_1/0_Brenau_2

New Line.l(r:p6udm6149-p6ulv5809) Units=km Length=0.00945653 bus1=p6udm6149.1.2 bus2=p6ulv5809.1.2 switch=n enabled=y phases=2 Linecode=1P_UG_AL_1/0_Brenau_2

New Line.l(r:p6udm6150-p6ulv5845) Units=km Length=0.0130444 bus1=p6udm6150.1.2 bus2=p6ulv5845.1.2 switch=n enabled=y phases=2 Linecode=1P_UG_AL_4/0_Sweetbriar_2

New Line.l(r:p6udm6149-p6udm6150) Units=km Length=0.00979523 bus1=p6udm6149.1.2 bus2=p6udm6150.1.2 switch=n enabled=y phases=2 Linecode=1P_UG_AL_4/0_Sweetbriar_2

New Line.l(r:p6udm6149-p6udt1889lv) Units=km Length=0.00980484 bus1=p6udt1889lv.1.2 bus2=p6udm6149.1.2 switch=n enabled=y phases=2 Linecode=1P_UG_AL_4/0_Sweetbriar_2

New Line.l(r:p6udm6152-p6ulv5849) Units=km Length=0.0142321 bus1=p6udm6152.1.2 bus2=p6ulv5849.1.2 switch=n enabled=y phases=2 Linecode=1P_UG_AL_1/0_Brenau_2

New Line.l(r:p6udm6153-p6ulv5850) Units=km Length=0.014119 bus1=p6udm6153.1.2 bus2=p6ulv5850.1.2 switch=n enabled=y phases=2 Linecode=1P_UG_AL_1/0_Brenau_2

New Line.l(r:p6udm6152-p6udm6153) Units=km Length=0.0576843 bus1=p6udm6152.1.2 bus2=p6udm6153.1.2 switch=n enabled=y phases=2 Linecode=1P_UG_AL_1/0_Brenau_2

New Line.l(r:p6udm6152-p6udt1889lv) Units=km Length=0.00979801 bus1=p6udt1889lv.1.2 bus2=p6udm6152.1.2 switch=n enabled=y phases=2 Linecode=1P_UG_AL_1/0_Brenau_2

New Line.l(r:p6udm6155-p6ulv5810) Units=km Length=0.0130908 bus1=p6udm6155.1.2 bus2=p6ulv5810.1.2 switch=n enabled=y phases=2 Linecode=1P_UG_AL_1/0_Brenau_2

New Line.l(r:p6udm6155-p6ulv5847) Units=km Length=0.0313587 bus1=p6udm6155.1.2 bus2=p6ulv5847.1.2 switch=n enabled=y phases=2 Linecode=1P_UG_AL_1/0_Brenau_2

New Line.l(r:p6udm6162-p6ulv5843) Units=km Length=0.0160968 bus1=p6udm6162.1.2 bus2=p6ulv5843.1.2 switch=n enabled=y phases=2 Linecode=1P_UG_AL_1/0_Brenau_2

New Line.l(r:p6udm6154-p6ulv5808) Units=km Length=0.0159264 bus1=p6udm6154.1.2 bus2=p6ulv5808.1.2 switch=n enabled=y phases=2 Linecode=1P_UG_AL_1/0_Brenau_2

New Line.l(r:p6udm6154-p6ulv5846) Units=km Length=0.0291736 bus1=p6udm6154.1.2 bus2=p6ulv5846.1.2 switch=n enabled=y phases=2 Linecode=1P_UG_AL_1/0_Brenau_2

New Line.l(r:p6udm6163-p6ulv5844) Units=km Length=0.0153743 bus1=p6udm6163.1.2 bus2=p6ulv5844.1.2 switch=n enabled=y phases=2 Linecode=1P_UG_AL_1/0_Brenau_2

New Line.l(r:p6udm6154-p6udm6163) Units=km Length=0.0086101 bus1=p6udm6154.1.2 bus2=p6udm6163.1.2 switch=n enabled=y phases=2 Linecode=1P_UG_AL_1/0_Brenau_2

New Line.l(r:p6udm6154-p6udm6162) Units=km Length=0.00860054 bus1=p6udm6162.1.2 bus2=p6udm6154.1.2 switch=n enabled=y phases=2 Linecode=1P_UG_AL_1/0_Brenau_2

New Line.l(r:p6udm6155-p6udm6162) Units=km Length=0.00861304 bus1=p6udm6155.1.2 bus2=p6udm6162.1.2 switch=n enabled=y phases=2 Linecode=1P_UG_AL_1/0_Brenau_2

New Line.l(r:p6udm6155-p6udt1890lv) Units=km Length=0.00860054 bus1=p6udt1890lv.1.2 bus2=p6udm6155.1.2 switch=n enabled=y phases=2 Linecode=1P_UG_AL_2/0_Converse_2

New Line.l(r:p6udm6156-p6ulv5811) Units=km Length=0.0109891 bus1=p6udm6156.1.2 bus2=p6ulv5811.1.2 switch=n enabled=y phases=2 Linecode=1P_UG_AL_1/0_Brenau_2

New Line.l(r:p6udm6161-p6ulv5842) Units=km Length=0.0164738 bus1=p6udm6161.1.2 bus2=p6ulv5842.1.2 switch=n enabled=y phases=2 Linecode=1P_UG_AL_1/0_Brenau_2

New Line.l(r:p6udm6157-p6ulv5812) Units=km Length=0.0101176 bus1=p6udm6157.1.2 bus2=p6ulv5812.1.2 switch=n enabled=y phases=2 Linecode=1P_UG_AL_1/0_Brenau_2

New Line.l(r:p6udm6157-p6ulv5841) Units=km Length=0.0171852 bus1=p6udm6157.1.2 bus2=p6ulv5841.1.2 switch=n enabled=y phases=2 Linecode=1P_UG_AL_1/0_Brenau_2

New Line.l(r:p6udm6158-p6ulv5817) Units=km Length=0.00852144 bus1=p6udm6158.1.2 bus2=p6ulv5817.1.2 switch=n enabled=y phases=2 Linecode=1P_UG_AL_1/0_Brenau_2

New Line.l(r:p6udm6159-p6ulv5840) Units=km Length=0.0235473 bus1=p6udm6159.1.2 bus2=p6ulv5840.1.2 switch=n enabled=y phases=2 Linecode=1P_UG_AL_1/0_Brenau_2

New Line.l(r:p6udm6158-p6udm6159) Units=km Length=0.00855923 bus1=p6udm6158.1.2 bus2=p6udm6159.1.2 switch=n enabled=y phases=2 Linecode=1P_UG_AL_1/0_Brenau_2

New Line.l(r:p6udm6157-p6udm6158) Units=km Length=0.00855923 bus1=p6udm6157.1.2 bus2=p6udm6158.1.2 switch=n enabled=y phases=2 Linecode=1P_UG_AL_1/0_Brenau_2

New Line.l(r:p6udm6157-p6udm6161) Units=km Length=0.00856207 bus1=p6udm6161.1.2 bus2=p6udm6157.1.2 switch=n enabled=y phases=2 Linecode=1P_UG_AL_1/0_Brenau_2

New Line.l(r:p6udm6156-p6udm6161) Units=km Length=0.00855923 bus1=p6udm6156.1.2 bus2=p6udm6161.1.2 switch=n enabled=y phases=2 Linecode=1P_UG_AL_2/0_Converse_2

New Line.l(r:p6udm6156-p6udt1890lv) Units=km Length=0.0086101 bus1=p6udt1890lv.1.2 bus2=p6udm6156.1.2 switch=n enabled=y phases=2 Linecode=1P_UG_AL_4/0_Sweetbriar_2

New Line.l(r:p6udm6167-p6ulv5819) Units=km Length=0.00948815 bus1=p6udm6167.1.2 bus2=p6ulv5819.1.2 switch=n enabled=y phases=2 Linecode=1P_UG_AL_1/0_Brenau_2

New Line.l(r:p6udm6166-p6ulv5818) Units=km Length=0.0107208 bus1=p6udm6166.1.2 bus2=p6ulv5818.1.2 switch=n enabled=y phases=2 Linecode=1P_UG_AL_1/0_Brenau_2

New Line.l(r:p6udm6166-p6ulv5839) Units=km Length=0.014986300000000001 bus1=p6udm6166.1.2 bus2=p6ulv5839.1.2 switch=n enabled=y phases=2 Linecode=1P_UG_AL_1/0_Brenau_2

New Line.l(r:p6udm6166-p6udm6167) Units=km Length=0.0199224 bus1=p6udm6167.1.2 bus2=p6udm6166.1.2 switch=n enabled=y phases=2 Linecode=1P_UG_AL_1/0_Brenau_2

New Line.l(r:p6udm6167-p6udt1891lv) Units=km Length=0.0371731 bus1=p6udt1891lv.1.2 bus2=p6udm6167.1.2 switch=n enabled=y phases=2 Linecode=1P_UG_AL_1/0_Brenau_2

New Line.l(r:p6udm6169-p6ulv5838) Units=km Length=0.011312600000000003 bus1=p6udm6169.1.2 bus2=p6ulv5838.1.2 switch=n enabled=y phases=2 Linecode=1P_UG_AL_1/0_Brenau_2

New Line.l(r:p6udm6168-p6ulv5836) Units=km Length=0.0110207 bus1=p6udm6168.1.2 bus2=p6ulv5836.1.2 switch=n enabled=y phases=2 Linecode=1P_UG_AL_1/0_Brenau_2

New Line.l(r:p6udm6168-p6ulv5860) Units=km Length=0.0173308 bus1=p6udm6168.1.2 bus2=p6ulv5860.1.2 switch=n enabled=y phases=2 Linecode=1P_UG_AL_1/0_Brenau_2

New Line.l(r:p6udm6168-p6udm6169) Units=km Length=0.0085415 bus1=p6udm6169.1.2 bus2=p6udm6168.1.2 switch=n enabled=y phases=2 Linecode=1P_UG_AL_1/0_Brenau_2

New Line.l(r:p6udm6169-p6udt1891lv) Units=km Length=0.00855132 bus1=p6udt1891lv.1.2 bus2=p6udm6169.1.2 switch=n enabled=y phases=2 Linecode=1P_UG_AL_1/0_Brenau_2

New Line.l(r:p6udm6173-p6ulv5826) Units=km Length=0.0121577 bus1=p6udm6173.1.2 bus2=p6ulv5826.1.2 switch=n enabled=y phases=2 Linecode=1P_UG_AL_1/0_Brenau_2

New Line.l(r:p6udm6173-p6ulv5829) Units=km Length=0.0146953 bus1=p6udm6173.1.2 bus2=p6ulv5829.1.2 switch=n enabled=y phases=2 Linecode=1P_UG_AL_1/0_Brenau_2

New Line.l(r:p6udm6172-p6ulv5820) Units=km Length=0.0125136 bus1=p6udm6172.1.2 bus2=p6ulv5820.1.2 switch=n enabled=y phases=2 Linecode=1P_UG_AL_1/0_Brenau_2

New Line.l(r:p6udm6172-p6udm6173) Units=km Length=0.00959438 bus1=p6udm6173.1.2 bus2=p6udm6172.1.2 switch=n enabled=y phases=2 Linecode=1P_UG_AL_1/0_Brenau_2

New Line.l(r:p6udm6173-p6udt1892lv) Units=km Length=0.019188800000000002 bus1=p6udt1892lv.1.2 bus2=p6udm6173.1.2 switch=n enabled=y phases=2 Linecode=1P_UG_AL_1/0_Brenau_2

New Line.l(r:p6udm6175-p6ulv5832) Units=km Length=0.0212799 bus1=p6udm6175.1.2 bus2=p6ulv5832.1.2 switch=n enabled=y phases=2 Linecode=1P_UG_AL_1/0_Brenau_2

New Line.l(r:p6udm6175-p6ulv5834) Units=km Length=0.0149421 bus1=p6udm6175.1.2 bus2=p6ulv5834.1.2 switch=n enabled=y phases=2 Linecode=1P_UG_AL_1/0_Brenau_2

New Line.l(r:p6udm6176-p6ulv5833) Units=km Length=0.0226534 bus1=p6udm6176.1.2 bus2=p6ulv5833.1.2 switch=n enabled=y phases=2 Linecode=1P_UG_AL_1/0_Brenau_2

New Line.l(r:p6udm6175-p6udm6176) Units=km Length=0.00855132 bus1=p6udm6175.1.2 bus2=p6udm6176.1.2 switch=n enabled=y phases=2 Linecode=1P_UG_AL_1/0_Brenau_2
