New Load.load_p6ulv975_1 conn=wye bus1=p6ulv975.1 kV=0.12 Vminpu=0.8 Vmaxpu=1.2 model=1 kva=0.80001 pf=1.0 Phases=1
New Load.load_p6ulv975_2 conn=wye bus1=p6ulv975.2 kV=0.12 Vminpu=0.8 Vmaxpu=1.2 model=1 kva=0.80001 pf=1.0 Phases=1
New Load.load_p6ulv976_1 conn=wye bus1=p6ulv976.1 kV=0.12 Vminpu=0.8 Vmaxpu=1.2 model=1 kva=3.15003 pf=1.0 Phases=1
New Load.load_p6ulv976_2 conn=wye bus1=p6ulv976.2 kV=0.12 Vminpu=0.8 Vmaxpu=1.2 model=1 kva=3.15003 pf=1.0 Phases=1
New Load.load_p6ulv977_1 conn=wye bus1=p6ulv977.1 kV=0.12 Vminpu=0.8 Vmaxpu=1.2 model=1 kva=0.580005 pf=1.0 Phases=1
New Load.load_p6ulv978_1 conn=wye bus1=p6ulv978.1 kV=0.12 Vminpu=0.8 Vmaxpu=1.2 model=1 kva=0.80001 pf=1.0 Phases=1
New Load.load_p6ulv979_1 conn=wye bus1=p6ulv979.1 kV=0.12 Vminpu=0.8 Vmaxpu=1.2 model=1 kva=1.665015 pf=1.0 Phases=1
New Load.load_p6ulv5744_1 conn=wye bus1=p6ulv5744.1 kV=0.12 Vminpu=0.8 Vmaxpu=1.2 model=1 kva=0.2400025 pf=1.0 Phases=1
New Load.load_p6ulv5745_1 conn=wye bus1=p6ulv5745.1 kV=0.12 Vminpu=0.8 Vmaxpu=1.2 model=1 kva=1.545015 pf=1.0 Phases=1
New Load.load_p6ulv5745_2 conn=wye bus1=p6ulv5745.2 kV=0.12 Vminpu=0.8 Vmaxpu=1.2 model=1 kva=1.545015 pf=1.0 Phases=1
New Load.load_p6ulv5747_1 conn=wye bus1=p6ulv5747.1 kV=0.12 Vminpu=0.8 Vmaxpu=1.2 model=1 kva=2.08502 pf=1.0 Phases=1
New Load.load_p6ulv5747_2 conn=wye bus1=p6ulv5747.2 kV=0.12 Vminpu=0.8 Vmaxpu=1.2 model=1 kva=2.08502 pf=1.0 Phases=1
New Load.load_p6ulv5748_2 conn=wye bus1=p6ulv5748.2 kV=0.12 Vminpu=0.8 Vmaxpu=1.2 model=1 kva=0.97001 pf=1.0 Phases=1
New Load.load_p6ulv5749_1 conn=wye bus1=p6ulv5749.1 kV=0.12 Vminpu=0.8 Vmaxpu=1.2 model=1 kva=1.13001 pf=1.0 Phases=1
New Load.load_p6ulv5749_2 conn=wye bus1=p6ulv5749.2 kV=0.12 Vminpu=0.8 Vmaxpu=1.2 model=1 kva=1.13001 pf=1.0 Phases=1
New Load.load_p6ulv5751_1 conn=wye bus1=p6ulv5751.1 kV=0.12 Vminpu=0.8 Vmaxpu=1.2 model=1 kva=0.555005 pf=1.0 Phases=1
New Load.load_p6ulv5752_1 conn=wye bus1=p6ulv5752.1 kV=0.12 Vminpu=0.8 Vmaxpu=1.2 model=1 kva=1.20001 pf=1.0 Phases=1
New Load.load_p6ulv5753_1 conn=wye bus1=p6ulv5753.1 kV=0.12 Vminpu=0.8 Vmaxpu=1.2 model=1 kva=0.675005 pf=1.0 Phases=1
New Load.load_p6ulv5755_1 conn=wye bus1=p6ulv5755.1 kV=0.12 Vminpu=0.8 Vmaxpu=1.2 model=1 kva=0.95001 pf=1.0 Phases=1
New Load.load_p6ulv5755_2 conn=wye bus1=p6ulv5755.2 kV=0.12 Vminpu=0.8 Vmaxpu=1.2 model=1 kva=0.95001 pf=1.0 Phases=1
New Load.load_p6ulv5756_1 conn=wye bus1=p6ulv5756.1 kV=0.12 Vminpu=0.8 Vmaxpu=1.2 model=1 kva=1.20001 pf=1.0 Phases=1
New Load.load_p6ulv5756_2 conn=wye bus1=p6ulv5756.2 kV=0.12 Vminpu=0.8 Vmaxpu=1.2 model=1 kva=1.20001 pf=1.0 Phases=1
New Load.load_p6ulv5758_1 conn=wye bus1=p6ulv5758.1 kV=0.12 Vminpu=0.8 Vmaxpu=1.2 model=1 kva=1.325015 pf=1.0 Phases=1
New Load.load_p6ulv5758_2 conn=wye bus1=p6ulv5758.2 kV=0.12 Vminpu=0.8 Vmaxpu=1.2 model=1 kva=1.325015 pf=1.0 Phases=1
New Load.load_p6ulv5759_1 conn=wye bus1=p6ulv5759.1 kV=0.12 Vminpu=0.8 Vmaxpu=1.2 model=1 kva=1.18001 pf=1.0 Phases=1
New Load.load_p6ulv5759_2 conn=wye bus1=p6ulv5759.2 kV=0.12 Vminpu=0.8 Vmaxpu=1.2 model=1 kva=1.18001 pf=1.0 Phases=1
New Load.load_p6ulv5760_2 conn=wye bus1=p6ulv5760.2 kV=0.12 Vminpu=0.8 Vmaxpu=1.2 model=1 kva=0.6550050000000001 pf=1.0 Phases=1
New Load.load_p6ulv5761_1 conn=wye bus1=p6ulv5761.1 kV=0.12 Vminpu=0.8 Vmaxpu=1.2 model=1 kva=1.260015 pf=1.0 Phases=1
New Load.load_p6ulv5762_1 conn=wye bus1=p6ulv5762.1 kV=0.12 Vminpu=0.8 Vmaxpu=1.2 model=1 kva=1.03501 pf=1.0 Phases=1
New Load.load_p6ulv5762_2 conn=wye bus1=p6ulv5762.2 kV=0.12 Vminpu=0.8 Vmaxpu=1.2 model=1 kva=1.03501 pf=1.0 Phases=1
New Load.load_p6ulv5763_2 conn=wye bus1=p6ulv5763.2 kV=0.12 Vminpu=0.8 Vmaxpu=1.2 model=1 kva=0.84501 pf=1.0 Phases=1
New Load.load_p6ulv5764_1 conn=wye bus1=p6ulv5764.1 kV=0.12 Vminpu=0.8 Vmaxpu=1.2 model=1 kva=1.355015 pf=1.0 Phases=1
New Load.load_p6ulv5764_2 conn=wye bus1=p6ulv5764.2 kV=0.12 Vminpu=0.8 Vmaxpu=1.2 model=1 kva=1.355015 pf=1.0 Phases=1
New Load.load_p6ulv5766_1 conn=wye bus1=p6ulv5766.1 kV=0.12 Vminpu=0.8 Vmaxpu=1.2 model=1 kva=0.4250045 pf=1.0 Phases=1
New Load.load_p6ulv5766_2 conn=wye bus1=p6ulv5766.2 kV=0.12 Vminpu=0.8 Vmaxpu=1.2 model=1 kva=0.4250045 pf=1.0 Phases=1
New Load.load_p6ulv5767_1 conn=wye bus1=p6ulv5767.1 kV=0.12 Vminpu=0.8 Vmaxpu=1.2 model=1 kva=0.76501 pf=1.0 Phases=1
New Load.load_p6ulv5767_2 conn=wye bus1=p6ulv5767.2 kV=0.12 Vminpu=0.8 Vmaxpu=1.2 model=1 kva=0.76501 pf=1.0 Phases=1
New Load.load_p6ulv5768_1 conn=wye bus1=p6ulv5768.1 kV=0.12 Vminpu=0.8 Vmaxpu=1.2 model=1 kva=0.595005 pf=1.0 Phases=1
New Load.load_p6ulv5768_2 conn=wye bus1=p6ulv5768.2 kV=0.12 Vminpu=0.8 Vmaxpu=1.2 model=1 kva=0.595005 pf=1.0 Phases=1
New Load.load_p6ulv5769_1 conn=wye bus1=p6ulv5769.1 kV=0.12 Vminpu=0.8 Vmaxpu=1.2 model=1 kva=1.03501 pf=1.0 Phases=1
New Load.load_p6ulv5769_2 conn=wye bus1=p6ulv5769.2 kV=0.12 Vminpu=0.8 Vmaxpu=1.2 model=1 kva=1.03501 pf=1.0 Phases=1
New Load.load_p6ulv5770_1 conn=wye bus1=p6ulv5770.1 kV=0.12 Vminpu=0.8 Vmaxpu=1.2 model=1 kva=1.01001 pf=1.0 Phases=1
New Load.load_p6ulv5770_2 conn=wye bus1=p6ulv5770.2 kV=0.12 Vminpu=0.8 Vmaxpu=1.2 model=1 kva=1.01001 pf=1.0 Phases=1
New Load.load_p6ulv5771_1 conn=wye bus1=p6ulv5771.1 kV=0.12 Vminpu=0.8 Vmaxpu=1.2 model=1 kva=1.89002 pf=1.0 Phases=1
New Load.load_p6ulv5772_1 conn=wye bus1=p6ulv5772.1 kV=0.12 Vminpu=0.8 Vmaxpu=1.2 model=1 kva=0.84501 pf=1.0 Phases=1
New Load.load_p6ulv5773_1 conn=wye bus1=p6ulv5773.1 kV=0.12 Vminpu=0.8 Vmaxpu=1.2 model=1 kva=0.4550045 pf=1.0 Phases=1
New Load.load_p6ulv5773_2 conn=wye bus1=p6ulv5773.2 kV=0.12 Vminpu=0.8 Vmaxpu=1.2 model=1 kva=0.4550045 pf=1.0 Phases=1
New Load.load_p6ulv5774_1 conn=wye bus1=p6ulv5774.1 kV=0.12 Vminpu=0.8 Vmaxpu=1.2 model=1 kva=1.02501 pf=1.0 Phases=1
New Load.load_p6ulv5774_2 conn=wye bus1=p6ulv5774.2 kV=0.12 Vminpu=0.8 Vmaxpu=1.2 model=1 kva=1.02501 pf=1.0 Phases=1
New Load.load_p6ulv5775_2 conn=wye bus1=p6ulv5775.2 kV=0.12 Vminpu=0.8 Vmaxpu=1.2 model=1 kva=0.710005 pf=1.0 Phases=1
New Load.load_p6ulv5776_1 conn=wye bus1=p6ulv5776.1 kV=0.12 Vminpu=0.8 Vmaxpu=1.2 model=1 kva=1.00001 pf=1.0 Phases=1
New Load.load_p6ulv5776_2 conn=wye bus1=p6ulv5776.2 kV=0.12 Vminpu=0.8 Vmaxpu=1.2 model=1 kva=1.00001 pf=1.0 Phases=1
New Load.load_p6ulv5777_2 conn=wye bus1=p6ulv5777.2 kV=0.12 Vminpu=0.8 Vmaxpu=1.2 model=1 kva=0.540005 pf=1.0 Phases=1
New Load.load_p6ulv5778_1 conn=wye bus1=p6ulv5778.1 kV=0.12 Vminpu=0.8 Vmaxpu=1.2 model=1 kva=0.80001 pf=1.0 Phases=1
New Load.load_p6ulv5779_1 conn=wye bus1=p6ulv5779.1 kV=0.12 Vminpu=0.8 Vmaxpu=1.2 model=1 kva=0.745005 pf=1.0 Phases=1
New Load.load_p6ulv5780_1 conn=wye bus1=p6ulv5780.1 kV=0.12 Vminpu=0.8 Vmaxpu=1.2 model=1 kva=0.690005 pf=1.0 Phases=1
New Load.load_p6ulv5782_1 conn=wye bus1=p6ulv5782.1 kV=0.12 Vminpu=0.8 Vmaxpu=1.2 model=1 kva=0.385004 pf=1.0 Phases=1
New Load.load_p6ulv5782_2 conn=wye bus1=p6ulv5782.2 kV=0.12 Vminpu=0.8 Vmaxpu=1.2 model=1 kva=0.385004 pf=1.0 Phases=1
New Load.load_p6ulv5783_1 conn=wye bus1=p6ulv5783.1 kV=0.12 Vminpu=0.8 Vmaxpu=1.2 model=1 kva=0.6550050000000001 pf=1.0 Phases=1
New Load.load_p6ulv5784_2 conn=wye bus1=p6ulv5784.2 kV=0.12 Vminpu=0.8 Vmaxpu=1.2 model=1 kva=0.88501 pf=1.0 Phases=1
New Load.load_p6ulv5785_2 conn=wye bus1=p6ulv5785.2 kV=0.12 Vminpu=0.8 Vmaxpu=1.2 model=1 kva=0.595005 pf=1.0 Phases=1
New Load.load_p6ulv5786_1 conn=wye bus1=p6ulv5786.1 kV=0.12 Vminpu=0.8 Vmaxpu=1.2 model=1 kva=0.550005 pf=1.0 Phases=1
New Load.load_p6ulv5786_2 conn=wye bus1=p6ulv5786.2 kV=0.12 Vminpu=0.8 Vmaxpu=1.2 model=1 kva=0.550005 pf=1.0 Phases=1
New Load.load_p6ulv5787_2 conn=wye bus1=p6ulv5787.2 kV=0.12 Vminpu=0.8 Vmaxpu=1.2 model=1 kva=0.740005 pf=1.0 Phases=1
New Load.load_p6ulv5788_1 conn=wye bus1=p6ulv5788.1 kV=0.12 Vminpu=0.8 Vmaxpu=1.2 model=1 kva=0.515005 pf=1.0 Phases=1
New Load.load_p6ulv5788_2 conn=wye bus1=p6ulv5788.2 kV=0.12 Vminpu=0.8 Vmaxpu=1.2 model=1 kva=0.515005 pf=1.0 Phases=1
New Load.load_p6ulv5789_1 conn=wye bus1=p6ulv5789.1 kV=0.12 Vminpu=0.8 Vmaxpu=1.2 model=1 kva=0.80001 pf=1.0 Phases=1
New Load.load_p6ulv5789_2 conn=wye bus1=p6ulv5789.2 kV=0.12 Vminpu=0.8 Vmaxpu=1.2 model=1 kva=0.80001 pf=1.0 Phases=1
New Load.load_p6ulv5790_2 conn=wye bus1=p6ulv5790.2 kV=0.12 Vminpu=0.8 Vmaxpu=1.2 model=1 kva=0.98001 pf=1.0 Phases=1
New Load.load_p6ulv5791_2 conn=wye bus1=p6ulv5791.2 kV=0.12 Vminpu=0.8 Vmaxpu=1.2 model=1 kva=0.3600035 pf=1.0 Phases=1
New Load.load_p6ulv5792_2 conn=wye bus1=p6ulv5792.2 kV=0.12 Vminpu=0.8 Vmaxpu=1.2 model=1 kva=0.570005 pf=1.0 Phases=1
New Load.load_p6ulv5793_1 conn=wye bus1=p6ulv5793.1 kV=0.12 Vminpu=0.8 Vmaxpu=1.2 model=1 kva=0.84001 pf=1.0 Phases=1
New Load.load_p6ulv5793_2 conn=wye bus1=p6ulv5793.2 kV=0.12 Vminpu=0.8 Vmaxpu=1.2 model=1 kva=0.84001 pf=1.0 Phases=1
New Load.load_p6ulv5794_2 conn=wye bus1=p6ulv5794.2 kV=0.12 Vminpu=0.8 Vmaxpu=1.2 model=1 kva=0.77501 pf=1.0 Phases=1
New Load.load_p6ulv5796_1 conn=wye bus1=p6ulv5796.1 kV=0.12 Vminpu=0.8 Vmaxpu=1.2 model=1 kva=1.91502 pf=1.0 Phases=1
New Load.load_p6ulv5796_2 conn=wye bus1=p6ulv5796.2 kV=0.12 Vminpu=0.8 Vmaxpu=1.2 model=1 kva=1.91502 pf=1.0 Phases=1
New Load.load_p6ulv5797_1 conn=wye bus1=p6ulv5797.1 kV=0.12 Vminpu=0.8 Vmaxpu=1.2 model=1 kva=0.545005 pf=1.0 Phases=1
New Load.load_p6ulv5797_2 conn=wye bus1=p6ulv5797.2 kV=0.12 Vminpu=0.8 Vmaxpu=1.2 model=1 kva=0.545005 pf=1.0 Phases=1
New Load.load_p6ulv5798_2 conn=wye bus1=p6ulv5798.2 kV=0.12 Vminpu=0.8 Vmaxpu=1.2 model=1 kva=1.305015 pf=1.0 Phases=1
New Load.load_p6ulv5799_1 conn=wye bus1=p6ulv5799.1 kV=0.12 Vminpu=0.8 Vmaxpu=1.2 model=1 kva=1.360015 pf=1.0 Phases=1
New Load.load_p6ulv5799_2 conn=wye bus1=p6ulv5799.2 kV=0.12 Vminpu=0.8 Vmaxpu=1.2 model=1 kva=1.360015 pf=1.0 Phases=1
New Load.load_p6ulv5800_1 conn=wye bus1=p6ulv5800.1 kV=0.12 Vminpu=0.8 Vmaxpu=1.2 model=1 kva=0.6600050000000001 pf=1.0 Phases=1
New Load.load_p6ulv5800_2 conn=wye bus1=p6ulv5800.2 kV=0.12 Vminpu=0.8 Vmaxpu=1.2 model=1 kva=0.6600050000000001 pf=1.0 Phases=1
New Load.load_p6ulv5801_1 conn=wye bus1=p6ulv5801.1 kV=0.12 Vminpu=0.8 Vmaxpu=1.2 model=1 kva=1.0600100000000001 pf=1.0 Phases=1
New Load.load_p6ulv5802_1 conn=wye bus1=p6ulv5802.1 kV=0.12 Vminpu=0.8 Vmaxpu=1.2 model=1 kva=0.625005 pf=1.0 Phases=1
New Load.load_p6ulv5802_2 conn=wye bus1=p6ulv5802.2 kV=0.12 Vminpu=0.8 Vmaxpu=1.2 model=1 kva=0.625005 pf=1.0 Phases=1
New Load.load_p6ulv5803_1 conn=wye bus1=p6ulv5803.1 kV=0.12 Vminpu=0.8 Vmaxpu=1.2 model=1 kva=0.630005 pf=1.0 Phases=1
New Load.load_p6ulv5803_2 conn=wye bus1=p6ulv5803.2 kV=0.12 Vminpu=0.8 Vmaxpu=1.2 model=1 kva=0.630005 pf=1.0 Phases=1
New Load.load_p6ulv5804_1 conn=wye bus1=p6ulv5804.1 kV=0.12 Vminpu=0.8 Vmaxpu=1.2 model=1 kva=0.285003 pf=1.0 Phases=1
New Load.load_p6ulv5805_1 conn=wye bus1=p6ulv5805.1 kV=0.12 Vminpu=0.8 Vmaxpu=1.2 model=1 kva=0.8600100000000002 pf=1.0 Phases=1
New Load.load_p6ulv5805_2 conn=wye bus1=p6ulv5805.2 kV=0.12 Vminpu=0.8 Vmaxpu=1.2 model=1 kva=0.8600100000000002 pf=1.0 Phases=1
New Load.load_p6ulv5806_1 conn=wye bus1=p6ulv5806.1 kV=0.12 Vminpu=0.8 Vmaxpu=1.2 model=1 kva=0.83001 pf=1.0 Phases=1
New Load.load_p6ulv5806_2 conn=wye bus1=p6ulv5806.2 kV=0.12 Vminpu=0.8 Vmaxpu=1.2 model=1 kva=0.83001 pf=1.0 Phases=1
New Load.load_p6ulv5807_1 conn=wye bus1=p6ulv5807.1 kV=0.12 Vminpu=0.8 Vmaxpu=1.2 model=1 kva=1.21501 pf=1.0 Phases=1
New Load.load_p6ulv5808_1 conn=wye bus1=p6ulv5808.1 kV=0.12 Vminpu=0.8 Vmaxpu=1.2 model=1 kva=0.695005 pf=1.0 Phases=1
New Load.load_p6ulv5808_2 conn=wye bus1=p6ulv5808.2 kV=0.12 Vminpu=0.8 Vmaxpu=1.2 model=1 kva=0.695005 pf=1.0 Phases=1
New Load.load_p6ulv5809_2 conn=wye bus1=p6ulv5809.2 kV=0.12 Vminpu=0.8 Vmaxpu=1.2 model=1 kva=0.92501 pf=1.0 Phases=1
New Load.load_p6ulv5810_1 conn=wye bus1=p6ulv5810.1 kV=0.12 Vminpu=0.8 Vmaxpu=1.2 model=1 kva=1.5350150000000002 pf=1.0 Phases=1
New Load.load_p6ulv5811_2 conn=wye bus1=p6ulv5811.2 kV=0.12 Vminpu=0.8 Vmaxpu=1.2 model=1 kva=0.92501 pf=1.0 Phases=1
New Load.load_p6ulv5812_1 conn=wye bus1=p6ulv5812.1 kV=0.12 Vminpu=0.8 Vmaxpu=1.2 model=1 kva=1.04001 pf=1.0 Phases=1
New Load.load_p6ulv5812_2 conn=wye bus1=p6ulv5812.2 kV=0.12 Vminpu=0.8 Vmaxpu=1.2 model=1 kva=1.04001 pf=1.0 Phases=1
New Load.load_p6ulv5813_1 conn=wye bus1=p6ulv5813.1 kV=0.12 Vminpu=0.8 Vmaxpu=1.2 model=1 kva=0.685005 pf=1.0 Phases=1
New Load.load_p6ulv5814_1 conn=wye bus1=p6ulv5814.1 kV=0.12 Vminpu=0.8 Vmaxpu=1.2 model=1 kva=1.10001 pf=1.0 Phases=1
New Load.load_p6ulv5814_2 conn=wye bus1=p6ulv5814.2 kV=0.12 Vminpu=0.8 Vmaxpu=1.2 model=1 kva=1.10001 pf=1.0 Phases=1
New Load.load_p6ulv5815_1 conn=wye bus1=p6ulv5815.1 kV=0.12 Vminpu=0.8 Vmaxpu=1.2 model=1 kva=0.8700100000000001 pf=1.0 Phases=1
New Load.load_p6ulv5815_2 conn=wye bus1=p6ulv5815.2 kV=0.12 Vminpu=0.8 Vmaxpu=1.2 model=1 kva=0.8700100000000001 pf=1.0 Phases=1
New Load.load_p6ulv5816_1 conn=wye bus1=p6ulv5816.1 kV=0.12 Vminpu=0.8 Vmaxpu=1.2 model=1 kva=1.02001 pf=1.0 Phases=1
New Load.load_p6ulv5817_2 conn=wye bus1=p6ulv5817.2 kV=0.12 Vminpu=0.8 Vmaxpu=1.2 model=1 kva=0.710005 pf=1.0 Phases=1
New Load.load_p6ulv5818_1 conn=wye bus1=p6ulv5818.1 kV=0.12 Vminpu=0.8 Vmaxpu=1.2 model=1 kva=1.6500150000000002 pf=1.0 Phases=1
New Load.load_p6ulv5819_1 conn=wye bus1=p6ulv5819.1 kV=0.12 Vminpu=0.8 Vmaxpu=1.2 model=1 kva=0.735005 pf=1.0 Phases=1
New Load.load_p6ulv5819_2 conn=wye bus1=p6ulv5819.2 kV=0.12 Vminpu=0.8 Vmaxpu=1.2 model=1 kva=0.735005 pf=1.0 Phases=1
New Load.load_p6ulv5820_2 conn=wye bus1=p6ulv5820.2 kV=0.12 Vminpu=0.8 Vmaxpu=1.2 model=1 kva=0.545005 pf=1.0 Phases=1
New Load.load_p6ulv5821_1 conn=wye bus1=p6ulv5821.1 kV=0.12 Vminpu=0.8 Vmaxpu=1.2 model=1 kva=0.605005 pf=1.0 Phases=1
New Load.load_p6ulv5821_2 conn=wye bus1=p6ulv5821.2 kV=0.12 Vminpu=0.8 Vmaxpu=1.2 model=1 kva=0.605005 pf=1.0 Phases=1
New Load.load_p6ulv5822_1 conn=wye bus1=p6ulv5822.1 kV=0.12 Vminpu=0.8 Vmaxpu=1.2 model=1 kva=0.88501 pf=1.0 Phases=1
New Load.load_p6ulv5822_2 conn=wye bus1=p6ulv5822.2 kV=0.12 Vminpu=0.8 Vmaxpu=1.2 model=1 kva=0.88501 pf=1.0 Phases=1
New Load.load_p6ulv5823_1 conn=wye bus1=p6ulv5823.1 kV=0.12 Vminpu=0.8 Vmaxpu=1.2 model=1 kva=0.665005 pf=1.0 Phases=1
New Load.load_p6ulv5823_2 conn=wye bus1=p6ulv5823.2 kV=0.12 Vminpu=0.8 Vmaxpu=1.2 model=1 kva=0.665005 pf=1.0 Phases=1
New Load.load_p6ulv5824_1 conn=wye bus1=p6ulv5824.1 kV=0.12 Vminpu=0.8 Vmaxpu=1.2 model=1 kva=1.14001 pf=1.0 Phases=1
New Load.load_p6ulv5824_2 conn=wye bus1=p6ulv5824.2 kV=0.12 Vminpu=0.8 Vmaxpu=1.2 model=1 kva=1.14001 pf=1.0 Phases=1
New Load.load_p6ulv5825_2 conn=wye bus1=p6ulv5825.2 kV=0.12 Vminpu=0.8 Vmaxpu=1.2 model=1 kva=0.615005 pf=1.0 Phases=1
New Load.load_p6ulv5826_2 conn=wye bus1=p6ulv5826.2 kV=0.12 Vminpu=0.8 Vmaxpu=1.2 model=1 kva=0.670005 pf=1.0 Phases=1
New Load.load_p6ulv5827_2 conn=wye bus1=p6ulv5827.2 kV=0.12 Vminpu=0.8 Vmaxpu=1.2 model=1 kva=0.685005 pf=1.0 Phases=1
New Load.load_p6ulv5828_1 conn=wye bus1=p6ulv5828.1 kV=0.12 Vminpu=0.8 Vmaxpu=1.2 model=1 kva=1.09001 pf=1.0 Phases=1
New Load.load_p6ulv5828_2 conn=wye bus1=p6ulv5828.2 kV=0.12 Vminpu=0.8 Vmaxpu=1.2 model=1 kva=1.09001 pf=1.0 Phases=1
New Load.load_p6ulv5829_1 conn=wye bus1=p6ulv5829.1 kV=0.12 Vminpu=0.8 Vmaxpu=1.2 model=1 kva=0.96501 pf=1.0 Phases=1
New Load.load_p6ulv5829_2 conn=wye bus1=p6ulv5829.2 kV=0.12 Vminpu=0.8 Vmaxpu=1.2 model=1 kva=0.96501 pf=1.0 Phases=1
New Load.load_p6ulv5830_2 conn=wye bus1=p6ulv5830.2 kV=0.12 Vminpu=0.8 Vmaxpu=1.2 model=1 kva=0.78001 pf=1.0 Phases=1
New Load.load_p6ulv5831_1 conn=wye bus1=p6ulv5831.1 kV=0.12 Vminpu=0.8 Vmaxpu=1.2 model=1 kva=0.88501 pf=1.0 Phases=1
New Load.load_p6ulv5832_1 conn=wye bus1=p6ulv5832.1 kV=0.12 Vminpu=0.8 Vmaxpu=1.2 model=1 kva=0.670005 pf=1.0 Phases=1
New Load.load_p6ulv5832_2 conn=wye bus1=p6ulv5832.2 kV=0.12 Vminpu=0.8 Vmaxpu=1.2 model=1 kva=0.670005 pf=1.0 Phases=1
New Load.load_p6ulv5833_1 conn=wye bus1=p6ulv5833.1 kV=0.12 Vminpu=0.8 Vmaxpu=1.2 model=1 kva=0.29500300000000007 pf=1.0 Phases=1
New Load.load_p6ulv5833_2 conn=wye bus1=p6ulv5833.2 kV=0.12 Vminpu=0.8 Vmaxpu=1.2 model=1 kva=0.29500300000000007 pf=1.0 Phases=1
New Load.load_p6ulv5834_1 conn=wye bus1=p6ulv5834.1 kV=0.12 Vminpu=0.8 Vmaxpu=1.2 model=1 kva=0.84501 pf=1.0 Phases=1
New Load.load_p6ulv5835_2 conn=wye bus1=p6ulv5835.2 kV=0.12 Vminpu=0.8 Vmaxpu=1.2 model=1 kva=0.84001 pf=1.0 Phases=1
New Load.load_p6ulv5836_1 conn=wye bus1=p6ulv5836.1 kV=0.12 Vminpu=0.8 Vmaxpu=1.2 model=1 kva=0.82001 pf=1.0 Phases=1
New Load.load_p6ulv5836_2 conn=wye bus1=p6ulv5836.2 kV=0.12 Vminpu=0.8 Vmaxpu=1.2 model=1 kva=0.82001 pf=1.0 Phases=1
New Load.load_p6ulv5837_1 conn=wye bus1=p6ulv5837.1 kV=0.12 Vminpu=0.8 Vmaxpu=1.2 model=1 kva=1.20001 pf=1.0 Phases=1
New Load.load_p6ulv5838_2 conn=wye bus1=p6ulv5838.2 kV=0.12 Vminpu=0.8 Vmaxpu=1.2 model=1 kva=1.20501 pf=1.0 Phases=1
New Load.load_p6ulv5839_1 conn=wye bus1=p6ulv5839.1 kV=0.12 Vminpu=0.8 Vmaxpu=1.2 model=1 kva=0.81001 pf=1.0 Phases=1
New Load.load_p6ulv5839_2 conn=wye bus1=p6ulv5839.2 kV=0.12 Vminpu=0.8 Vmaxpu=1.2 model=1 kva=0.81001 pf=1.0 Phases=1
New Load.load_p6ulv5840_1 conn=wye bus1=p6ulv5840.1 kV=0.12 Vminpu=0.8 Vmaxpu=1.2 model=1 kva=0.615005 pf=1.0 Phases=1
New Load.load_p6ulv5840_2 conn=wye bus1=p6ulv5840.2 kV=0.12 Vminpu=0.8 Vmaxpu=1.2 model=1 kva=0.615005 pf=1.0 Phases=1
New Load.load_p6ulv5841_1 conn=wye bus1=p6ulv5841.1 kV=0.12 Vminpu=0.8 Vmaxpu=1.2 model=1 kva=1.285015 pf=1.0 Phases=1
New Load.load_p6ulv5841_2 conn=wye bus1=p6ulv5841.2 kV=0.12 Vminpu=0.8 Vmaxpu=1.2 model=1 kva=1.285015 pf=1.0 Phases=1
New Load.load_p6ulv5843_2 conn=wye bus1=p6ulv5843.2 kV=0.12 Vminpu=0.8 Vmaxpu=1.2 model=1 kva=0.680005 pf=1.0 Phases=1
New Load.load_p6ulv5844_1 conn=wye bus1=p6ulv5844.1 kV=0.12 Vminpu=0.8 Vmaxpu=1.2 model=1 kva=0.76001 pf=1.0 Phases=1
New Load.load_p6ulv5844_2 conn=wye bus1=p6ulv5844.2 kV=0.12 Vminpu=0.8 Vmaxpu=1.2 model=1 kva=0.76001 pf=1.0 Phases=1
New Load.load_p6ulv5845_1 conn=wye bus1=p6ulv5845.1 kV=0.12 Vminpu=0.8 Vmaxpu=1.2 model=1 kva=7.24505 pf=1.0 Phases=1
New Load.load_p6ulv5845_2 conn=wye bus1=p6ulv5845.2 kV=0.12 Vminpu=0.8 Vmaxpu=1.2 model=1 kva=7.24505 pf=1.0 Phases=1
New Load.load_p6ulv5846_1 conn=wye bus1=p6ulv5846.1 kV=0.12 Vminpu=0.8 Vmaxpu=1.2 model=1 kva=0.505005 pf=1.0 Phases=1
New Load.load_p6ulv5847_1 conn=wye bus1=p6ulv5847.1 kV=0.12 Vminpu=0.8 Vmaxpu=1.2 model=1 kva=0.390004 pf=1.0 Phases=1
New Load.load_p6ulv5847_2 conn=wye bus1=p6ulv5847.2 kV=0.12 Vminpu=0.8 Vmaxpu=1.2 model=1 kva=0.390004 pf=1.0 Phases=1
New Load.load_p6ulv5848_1 conn=wye bus1=p6ulv5848.1 kV=0.12 Vminpu=0.8 Vmaxpu=1.2 model=1 kva=0.5300050000000001 pf=1.0 Phases=1
New Load.load_p6ulv5848_2 conn=wye bus1=p6ulv5848.2 kV=0.12 Vminpu=0.8 Vmaxpu=1.2 model=1 kva=0.5300050000000001 pf=1.0 Phases=1
New Load.load_p6ulv5849_1 conn=wye bus1=p6ulv5849.1 kV=0.12 Vminpu=0.8 Vmaxpu=1.2 model=1 kva=1.02001 pf=1.0 Phases=1
New Load.load_p6ulv5849_2 conn=wye bus1=p6ulv5849.2 kV=0.12 Vminpu=0.8 Vmaxpu=1.2 model=1 kva=1.02001 pf=1.0 Phases=1
New Load.load_p6ulv5850_1 conn=wye bus1=p6ulv5850.1 kV=0.12 Vminpu=0.8 Vmaxpu=1.2 model=1 kva=0.90501 pf=1.0 Phases=1
New Load.load_p6ulv5850_2 conn=wye bus1=p6ulv5850.2 kV=0.12 Vminpu=0.8 Vmaxpu=1.2 model=1 kva=0.90501 pf=1.0 Phases=1
New Load.load_p6ulv5851_1 conn=wye bus1=p6ulv5851.1 kV=0.12 Vminpu=0.8 Vmaxpu=1.2 model=1 kva=2.05002 pf=1.0 Phases=1
New Load.load_p6ulv5851_2 conn=wye bus1=p6ulv5851.2 kV=0.12 Vminpu=0.8 Vmaxpu=1.2 model=1 kva=2.05002 pf=1.0 Phases=1
New Load.load_p6ulv5852_1 conn=wye bus1=p6ulv5852.1 kV=0.12 Vminpu=0.8 Vmaxpu=1.2 model=1 kva=1.495015 pf=1.0 Phases=1
New Load.load_p6ulv5852_2 conn=wye bus1=p6ulv5852.2 kV=0.12 Vminpu=0.8 Vmaxpu=1.2 model=1 kva=1.495015 pf=1.0 Phases=1
New Load.load_p6ulv5853 conn=wye bus1=p6ulv5853.1.2.3 kV=0.48 Vminpu=0.8 Vmaxpu=1.2 model=1 kva=26.350299999999997 pf=1.0 Phases=3
New Load.load_p6ulv5854_1 conn=wye bus1=p6ulv5854.1 kV=0.12 Vminpu=0.8 Vmaxpu=1.2 model=1 kva=1.12001 pf=1.0 Phases=1
New Load.load_p6ulv5854_2 conn=wye bus1=p6ulv5854.2 kV=0.12 Vminpu=0.8 Vmaxpu=1.2 model=1 kva=1.12001 pf=1.0 Phases=1
New Load.load_p6ulv5855_1 conn=wye bus1=p6ulv5855.1 kV=0.12 Vminpu=0.8 Vmaxpu=1.2 model=1 kva=0.80501 pf=1.0 Phases=1
New Load.load_p6ulv5855_2 conn=wye bus1=p6ulv5855.2 kV=0.12 Vminpu=0.8 Vmaxpu=1.2 model=1 kva=0.80501 pf=1.0 Phases=1
New Load.load_p6ulv5856_1 conn=wye bus1=p6ulv5856.1 kV=0.12 Vminpu=0.8 Vmaxpu=1.2 model=1 kva=1.16501 pf=1.0 Phases=1
New Load.load_p6ulv5856_2 conn=wye bus1=p6ulv5856.2 kV=0.12 Vminpu=0.8 Vmaxpu=1.2 model=1 kva=1.16501 pf=1.0 Phases=1
New Load.load_p6ulv5857_1 conn=wye bus1=p6ulv5857.1 kV=0.12 Vminpu=0.8 Vmaxpu=1.2 model=1 kva=1.02001 pf=1.0 Phases=1
New Load.load_p6ulv5858_2 conn=wye bus1=p6ulv5858.2 kV=0.12 Vminpu=0.8 Vmaxpu=1.2 model=1 kva=0.94001 pf=1.0 Phases=1
New Load.load_p6ulv5861_2 conn=wye bus1=p6ulv5861.2 kV=0.12 Vminpu=0.8 Vmaxpu=1.2 model=1 kva=0.94001 pf=1.0 Phases=1
New Load.load_p6ulv5862_1 conn=wye bus1=p6ulv5862.1 kV=0.12 Vminpu=0.8 Vmaxpu=1.2 model=1 kva=0.83001 pf=1.0 Phases=1
New Load.load_p6ulv5862_2 conn=wye bus1=p6ulv5862.2 kV=0.12 Vminpu=0.8 Vmaxpu=1.2 model=1 kva=0.83001 pf=1.0 Phases=1
New Load.load_p6ulv5863_1 conn=wye bus1=p6ulv5863.1 kV=0.12 Vminpu=0.8 Vmaxpu=1.2 model=1 kva=1.545015 pf=1.0 Phases=1
New Load.load_p6ulv5863_2 conn=wye bus1=p6ulv5863.2 kV=0.12 Vminpu=0.8 Vmaxpu=1.2 model=1 kva=1.545015 pf=1.0 Phases=1
New Load.load_p6ulv5864_1 conn=wye bus1=p6ulv5864.1 kV=0.12 Vminpu=0.8 Vmaxpu=1.2 model=1 kva=0.75001 pf=1.0 Phases=1
New Load.load_p6ulv5865_1 conn=wye bus1=p6ulv5865.1 kV=0.12 Vminpu=0.8 Vmaxpu=1.2 model=1 kva=0.9950100000000001 pf=1.0 Phases=1
New Load.load_p6ulv5865_2 conn=wye bus1=p6ulv5865.2 kV=0.12 Vminpu=0.8 Vmaxpu=1.2 model=1 kva=0.9950100000000001 pf=1.0 Phases=1
New Load.load_p6ulv5866_1 conn=wye bus1=p6ulv5866.1 kV=0.12 Vminpu=0.8 Vmaxpu=1.2 model=1 kva=1.04001 pf=1.0 Phases=1
New Load.load_p6ulv5866_2 conn=wye bus1=p6ulv5866.2 kV=0.12 Vminpu=0.8 Vmaxpu=1.2 model=1 kva=1.04001 pf=1.0 Phases=1
New Load.load_p6ulv5867_1 conn=wye bus1=p6ulv5866.1 kV=0.12 Vminpu=0.8 Vmaxpu=1.2 model=1 kva=1.2650150000000002 pf=1.0 Phases=1
New Load.load_p6ulv5867_2 conn=wye bus1=p6ulv5866.2 kV=0.12 Vminpu=0.8 Vmaxpu=1.2 model=1 kva=1.2650150000000002 pf=1.0 Phases=1
New Load.load_p6ulv5868_2 conn=wye bus1=p6ulv5868.2 kV=0.12 Vminpu=0.8 Vmaxpu=1.2 model=1 kva=0.725005 pf=1.0 Phases=1
New Load.load_p6ulv5869_1 conn=wye bus1=p6ulv5869.1 kV=0.12 Vminpu=0.8 Vmaxpu=1.2 model=1 kva=0.715005 pf=1.0 Phases=1
New Load.load_p6ulv5869_2 conn=wye bus1=p6ulv5869.2 kV=0.12 Vminpu=0.8 Vmaxpu=1.2 model=1 kva=0.715005 pf=1.0 Phases=1
New Load.load_p6ulv5870_1 conn=wye bus1=p6ulv5870.1 kV=0.12 Vminpu=0.8 Vmaxpu=1.2 model=1 kva=1.15001 pf=1.0 Phases=1
New Load.load_p6ulv5870_2 conn=wye bus1=p6ulv5870.2 kV=0.12 Vminpu=0.8 Vmaxpu=1.2 model=1 kva=1.15001 pf=1.0 Phases=1
New Load.load_p6ulv5871_1 conn=wye bus1=p6ulv5871.1 kV=0.12 Vminpu=0.8 Vmaxpu=1.2 model=1 kva=1.09501 pf=1.0 Phases=1
New Load.load_p6ulv5871_2 conn=wye bus1=p6ulv5871.2 kV=0.12 Vminpu=0.8 Vmaxpu=1.2 model=1 kva=1.09501 pf=1.0 Phases=1
New Load.load_p6ulv5872_1 conn=wye bus1=p6ulv5872.1 kV=0.12 Vminpu=0.8 Vmaxpu=1.2 model=1 kva=0.96001 pf=1.0 Phases=1
New Load.load_p6ulv5872_2 conn=wye bus1=p6ulv5872.2 kV=0.12 Vminpu=0.8 Vmaxpu=1.2 model=1 kva=0.96001 pf=1.0 Phases=1
New Load.load_p6ulv5873_1 conn=wye bus1=p6ulv5873.1 kV=0.12 Vminpu=0.8 Vmaxpu=1.2 model=1 kva=0.95501 pf=1.0 Phases=1
New Load.load_p6ulv5873_2 conn=wye bus1=p6ulv5873.2 kV=0.12 Vminpu=0.8 Vmaxpu=1.2 model=1 kva=0.95501 pf=1.0 Phases=1
New Load.load_p6ulv5874_2 conn=wye bus1=p6ulv5874.2 kV=0.12 Vminpu=0.8 Vmaxpu=1.2 model=1 kva=1.12001 pf=1.0 Phases=1
New Load.load_p6ulv5876_2 conn=wye bus1=p6ulv5876.2 kV=0.12 Vminpu=0.8 Vmaxpu=1.2 model=1 kva=1.665015 pf=1.0 Phases=1
New Load.load_p6ulv5877_1 conn=wye bus1=p6ulv5877.1 kV=0.12 Vminpu=0.8 Vmaxpu=1.2 model=1 kva=1.420015 pf=1.0 Phases=1
New Load.load_p6ulv5878_2 conn=wye bus1=p6ulv5878.2 kV=0.12 Vminpu=0.8 Vmaxpu=1.2 model=1 kva=0.94501 pf=1.0 Phases=1
New Load.load_p6ulv5879_1 conn=wye bus1=p6ulv5879.1 kV=0.12 Vminpu=0.8 Vmaxpu=1.2 model=1 kva=0.78501 pf=1.0 Phases=1
New Load.load_p6ulv5880_1 conn=wye bus1=p6ulv5880.1 kV=0.12 Vminpu=0.8 Vmaxpu=1.2 model=1 kva=0.93501 pf=1.0 Phases=1
New Load.load_p6ulv5880_2 conn=wye bus1=p6ulv5880.2 kV=0.12 Vminpu=0.8 Vmaxpu=1.2 model=1 kva=0.93501 pf=1.0 Phases=1
New Load.load_p6ulv5881_2 conn=wye bus1=p6ulv5881.2 kV=0.12 Vminpu=0.8 Vmaxpu=1.2 model=1 kva=0.92001 pf=1.0 Phases=1
New Load.load_p6ulv5882_1 conn=wye bus1=p6ulv5882.1 kV=0.12 Vminpu=0.8 Vmaxpu=1.2 model=1 kva=0.78001 pf=1.0 Phases=1
New Load.load_p6ulv5882_2 conn=wye bus1=p6ulv5882.2 kV=0.12 Vminpu=0.8 Vmaxpu=1.2 model=1 kva=0.78001 pf=1.0 Phases=1
New Load.load_p6ulv5883_1 conn=wye bus1=p6ulv5883.1 kV=0.12 Vminpu=0.8 Vmaxpu=1.2 model=1 kva=1.19501 pf=1.0 Phases=1
New Load.load_p6ulv5884_2 conn=wye bus1=p6ulv5884.2 kV=0.12 Vminpu=0.8 Vmaxpu=1.2 model=1 kva=1.635015 pf=1.0 Phases=1
New Load.load_p6ulv5885_2 conn=wye bus1=p6ulv5885.2 kV=0.12 Vminpu=0.8 Vmaxpu=1.2 model=1 kva=1.22001 pf=1.0 Phases=1
New Load.load_p6ulv5886_1 conn=wye bus1=p6ulv5886.1 kV=0.12 Vminpu=0.8 Vmaxpu=1.2 model=1 kva=1.04001 pf=1.0 Phases=1
New Load.load_p6ulv5886_2 conn=wye bus1=p6ulv5886.2 kV=0.12 Vminpu=0.8 Vmaxpu=1.2 model=1 kva=1.04001 pf=1.0 Phases=1
New Load.load_p6ulv5887_1 conn=wye bus1=p6ulv5887.1 kV=0.12 Vminpu=0.8 Vmaxpu=1.2 model=1 kva=1.420015 pf=1.0 Phases=1
New Load.load_p6ulv5887_2 conn=wye bus1=p6ulv5887.2 kV=0.12 Vminpu=0.8 Vmaxpu=1.2 model=1 kva=1.420015 pf=1.0 Phases=1
New Load.load_p6ulv5888_2 conn=wye bus1=p6ulv5888.2 kV=0.12 Vminpu=0.8 Vmaxpu=1.2 model=1 kva=0.98001 pf=1.0 Phases=1
New Load.load_p6ulv5889_2 conn=wye bus1=p6ulv5889.2 kV=0.12 Vminpu=0.8 Vmaxpu=1.2 model=1 kva=1.21501 pf=1.0 Phases=1
New Load.load_p6ulv5890_2 conn=wye bus1=p6ulv5890.2 kV=0.12 Vminpu=0.8 Vmaxpu=1.2 model=1 kva=1.270015 pf=1.0 Phases=1
New Load.load_p6ulv5891_2 conn=wye bus1=p6ulv5891.2 kV=0.12 Vminpu=0.8 Vmaxpu=1.2 model=1 kva=0.735005 pf=1.0 Phases=1
New Load.load_p6ulv5892_1 conn=wye bus1=p6ulv5892.1 kV=0.12 Vminpu=0.8 Vmaxpu=1.2 model=1 kva=0.490005 pf=1.0 Phases=1
New Load.load_p6ulv5892_2 conn=wye bus1=p6ulv5892.2 kV=0.12 Vminpu=0.8 Vmaxpu=1.2 model=1 kva=0.490005 pf=1.0 Phases=1
New Load.load_p6ulv5893_1 conn=wye bus1=p6ulv5893.1 kV=0.12 Vminpu=0.8 Vmaxpu=1.2 model=1 kva=0.515005 pf=1.0 Phases=1
New Load.load_p6ulv5894_1 conn=wye bus1=p6ulv5894.1 kV=0.12 Vminpu=0.8 Vmaxpu=1.2 model=1 kva=0.94501 pf=1.0 Phases=1
New Load.load_p6ulv5894_2 conn=wye bus1=p6ulv5894.2 kV=0.12 Vminpu=0.8 Vmaxpu=1.2 model=1 kva=0.94501 pf=1.0 Phases=1
New Load.load_p6ulv5895_1 conn=wye bus1=p6ulv5895.1 kV=0.12 Vminpu=0.8 Vmaxpu=1.2 model=1 kva=0.95501 pf=1.0 Phases=1
New Load.load_p6ulv5896_2 conn=wye bus1=p6ulv5896.2 kV=0.12 Vminpu=0.8 Vmaxpu=1.2 model=1 kva=0.94501 pf=1.0 Phases=1
New Load.load_p6ulv5897_1 conn=wye bus1=p6ulv5897.1 kV=0.12 Vminpu=0.8 Vmaxpu=1.2 model=1 kva=1.03501 pf=1.0 Phases=1
New Load.load_p6ulv5898_1 conn=wye bus1=p6ulv5898.1 kV=0.12 Vminpu=0.8 Vmaxpu=1.2 model=1 kva=1.305015 pf=1.0 Phases=1
New Load.load_p6ulv5898_2 conn=wye bus1=p6ulv5898.2 kV=0.12 Vminpu=0.8 Vmaxpu=1.2 model=1 kva=1.305015 pf=1.0 Phases=1
New Load.load_p6ulv5899_1 conn=wye bus1=p6ulv5898.1 kV=0.12 Vminpu=0.8 Vmaxpu=1.2 model=1 kva=0.8600100000000002 pf=1.0 Phases=1
New Load.load_p6ulv5900_1 conn=wye bus1=p6ulv5900.1 kV=0.12 Vminpu=0.8 Vmaxpu=1.2 model=1 kva=1.01501 pf=1.0 Phases=1
New Load.load_p6ulv5900_2 conn=wye bus1=p6ulv5900.2 kV=0.12 Vminpu=0.8 Vmaxpu=1.2 model=1 kva=1.01501 pf=1.0 Phases=1
New Load.load_p6ulv5901_1 conn=wye bus1=p6ulv5901.1 kV=0.12 Vminpu=0.8 Vmaxpu=1.2 model=1 kva=0.76001 pf=1.0 Phases=1
New Load.load_p6ulv5901_2 conn=wye bus1=p6ulv5901.2 kV=0.12 Vminpu=0.8 Vmaxpu=1.2 model=1 kva=0.76001 pf=1.0 Phases=1
New Load.load_p6ulv5902_1 conn=wye bus1=p6ulv5902.1 kV=0.12 Vminpu=0.8 Vmaxpu=1.2 model=1 kva=1.320015 pf=1.0 Phases=1
New Load.load_p6ulv5902_2 conn=wye bus1=p6ulv5902.2 kV=0.12 Vminpu=0.8 Vmaxpu=1.2 model=1 kva=1.320015 pf=1.0 Phases=1
New Load.load_p6ulv5903_1 conn=wye bus1=p6ulv5903.1 kV=0.12 Vminpu=0.8 Vmaxpu=1.2 model=1 kva=0.745005 pf=1.0 Phases=1
New Load.load_p6ulv5904_1 conn=wye bus1=p6ulv5904.1 kV=0.12 Vminpu=0.8 Vmaxpu=1.2 model=1 kva=0.4550045 pf=1.0 Phases=1
New Load.load_p6ulv5905_2 conn=wye bus1=p6ulv5905.2 kV=0.12 Vminpu=0.8 Vmaxpu=1.2 model=1 kva=0.4250045 pf=1.0 Phases=1
New Load.load_p6ulv5906_1 conn=wye bus1=p6ulv5906.1 kV=0.12 Vminpu=0.8 Vmaxpu=1.2 model=1 kva=0.98001 pf=1.0 Phases=1
New Load.load_p6ulv5906_2 conn=wye bus1=p6ulv5906.2 kV=0.12 Vminpu=0.8 Vmaxpu=1.2 model=1 kva=0.98001 pf=1.0 Phases=1
New Load.load_p6ulv5907_1 conn=wye bus1=p6ulv5907.1 kV=0.12 Vminpu=0.8 Vmaxpu=1.2 model=1 kva=1.01501 pf=1.0 Phases=1
New Load.load_p6ulv5907_2 conn=wye bus1=p6ulv5907.2 kV=0.12 Vminpu=0.8 Vmaxpu=1.2 model=1 kva=1.01501 pf=1.0 Phases=1
New Load.load_p6ulv5908_1 conn=wye bus1=p6ulv5908.1 kV=0.12 Vminpu=0.8 Vmaxpu=1.2 model=1 kva=0.92001 pf=1.0 Phases=1
New Load.load_p6ulv5908_2 conn=wye bus1=p6ulv5908.2 kV=0.12 Vminpu=0.8 Vmaxpu=1.2 model=1 kva=0.92001 pf=1.0 Phases=1
New Load.load_p6ulv5909_1 conn=wye bus1=p6ulv5909.1 kV=0.12 Vminpu=0.8 Vmaxpu=1.2 model=1 kva=1.2650150000000002 pf=1.0 Phases=1
New Load.load_p6ulv5909_2 conn=wye bus1=p6ulv5909.2 kV=0.12 Vminpu=0.8 Vmaxpu=1.2 model=1 kva=1.2650150000000002 pf=1.0 Phases=1
New Load.load_p6ulv5910_1 conn=wye bus1=p6ulv5910.1 kV=0.12 Vminpu=0.8 Vmaxpu=1.2 model=1 kva=4.82005 pf=1.0 Phases=1
New Load.load_p6ulv5910_2 conn=wye bus1=p6ulv5910.2 kV=0.12 Vminpu=0.8 Vmaxpu=1.2 model=1 kva=4.82005 pf=1.0 Phases=1
New Load.load_p6ulv5911_2 conn=wye bus1=p6ulv5910.2 kV=0.12 Vminpu=0.8 Vmaxpu=1.2 model=1 kva=0.96501 pf=1.0 Phases=1
New Load.load_p6ulv5912_1 conn=wye bus1=p6ulv5912.1 kV=0.12 Vminpu=0.8 Vmaxpu=1.2 model=1 kva=1.490015 pf=1.0 Phases=1
New Load.load_p6ulv5913_1 conn=wye bus1=p6ulv5913.1 kV=0.12 Vminpu=0.8 Vmaxpu=1.2 model=1 kva=1.12501 pf=1.0 Phases=1
New Load.load_p6ulv5913_2 conn=wye bus1=p6ulv5913.2 kV=0.12 Vminpu=0.8 Vmaxpu=1.2 model=1 kva=1.12501 pf=1.0 Phases=1
New Load.load_p6ulv5914_1 conn=wye bus1=p6ulv5914.1 kV=0.12 Vminpu=0.8 Vmaxpu=1.2 model=1 kva=0.83001 pf=1.0 Phases=1