New Load.load_p6ulv975_1 conn=wye bus1=p6ulv975.1 kV=0.12 Vminpu=0.8 Vmaxpu=1.2 model=1 kW=0.80001 kvar=0.16494369115858584 Phases=1

New Load.load_p6ulv975_2 conn=wye bus1=p6ulv975.2 kV=0.12 Vminpu=0.8 Vmaxpu=1.2 model=1 kW=0.80001 kvar=0.16494369115858584 Phases=1

New Load.load_p6ulv976_1 conn=wye bus1=p6ulv976.1 kV=0.12 Vminpu=0.8 Vmaxpu=1.2 model=1 kW=3.15003 kvar=0.6396408727569326 Phases=1

New Load.load_p6ulv976_2 conn=wye bus1=p6ulv976.2 kV=0.12 Vminpu=0.8 Vmaxpu=1.2 model=1 kW=3.15003 kvar=0.6396408727569326 Phases=1

New Load.load_p6ulv977_1 conn=wye bus1=p6ulv977.1 kV=0.12 Vminpu=0.8 Vmaxpu=1.2 model=1 kW=0.580005 kvar=0.11501512679758837 Phases=1

New Load.load_p6ulv977_2 conn=wye bus1=p6ulv977.2 kV=0.12 Vminpu=0.8 Vmaxpu=1.2 model=1 kW=0.580005 kvar=0.11501512679758837 Phases=1

New Load.load_p6ulv978_1 conn=wye bus1=p6ulv978.1 kV=0.12 Vminpu=0.8 Vmaxpu=1.2 model=1 kW=0.80001 kvar=0.15991999924178213 Phases=1

New Load.load_p6ulv978_2 conn=wye bus1=p6ulv978.2 kV=0.12 Vminpu=0.8 Vmaxpu=1.2 model=1 kW=0.80001 kvar=0.15991999924178213 Phases=1

New Load.load_p6ulv979_1 conn=wye bus1=p6ulv979.1 kV=0.12 Vminpu=0.8 Vmaxpu=1.2 model=1 kW=1.665015 kvar=0.33983418199288007 Phases=1

New Load.load_p6ulv979_2 conn=wye bus1=p6ulv979.2 kV=0.12 Vminpu=0.8 Vmaxpu=1.2 model=1 kW=1.665015 kvar=0.33983418199288007 Phases=1

New Load.load_p6ulv5744_1 conn=wye bus1=p6ulv5744.1 kV=0.12 Vminpu=0.8 Vmaxpu=1.2 model=1 kW=0.2400025 kvar=0.04997647471906217 Phases=1

New Load.load_p6ulv5744_2 conn=wye bus1=p6ulv5744.2 kV=0.12 Vminpu=0.8 Vmaxpu=1.2 model=1 kW=0.2400025 kvar=0.04997647471906217 Phases=1

New Load.load_p6ulv5745_1 conn=wye bus1=p6ulv5745.1 kV=0.12 Vminpu=0.8 Vmaxpu=1.2 model=1 kW=1.545015 kvar=0.3153418489873843 Phases=1

New Load.load_p6ulv5745_2 conn=wye bus1=p6ulv5745.2 kV=0.12 Vminpu=0.8 Vmaxpu=1.2 model=1 kW=1.545015 kvar=0.3153418489873843 Phases=1

New Load.load_p6ulv5746_1 conn=wye bus1=p6ulv5746.1 kV=0.12 Vminpu=0.8 Vmaxpu=1.2 model=1 kW=1.530015 kvar=0.3098813215846988 Phases=1

New Load.load_p6ulv5746_2 conn=wye bus1=p6ulv5746.2 kV=0.12 Vminpu=0.8 Vmaxpu=1.2 model=1 kW=1.530015 kvar=0.3098813215846988 Phases=1

New Load.load_p6ulv5747_1 conn=wye bus1=p6ulv5747.1 kV=0.12 Vminpu=0.8 Vmaxpu=1.2 model=1 kW=2.08502 kvar=0.42447109734513905 Phases=1

New Load.load_p6ulv5747_2 conn=wye bus1=p6ulv5747.2 kV=0.12 Vminpu=0.8 Vmaxpu=1.2 model=1 kW=2.08502 kvar=0.42447109734513905 Phases=1

New Load.load_p6ulv5748_1 conn=wye bus1=p6ulv5748.1 kV=0.12 Vminpu=0.8 Vmaxpu=1.2 model=1 kW=0.97001 kvar=0.19492942577069053 Phases=1

New Load.load_p6ulv5748_2 conn=wye bus1=p6ulv5748.2 kV=0.12 Vminpu=0.8 Vmaxpu=1.2 model=1 kW=0.97001 kvar=0.19492942577069053 Phases=1

New Load.load_p6ulv5749_1 conn=wye bus1=p6ulv5749.1 kV=0.12 Vminpu=0.8 Vmaxpu=1.2 model=1 kW=1.13001 kvar=0.2300489130612563 Phases=1

New Load.load_p6ulv5749_2 conn=wye bus1=p6ulv5749.2 kV=0.12 Vminpu=0.8 Vmaxpu=1.2 model=1 kW=1.13001 kvar=0.2300489130612563 Phases=1

New Load.load_p6ulv5750_1 conn=wye bus1=p6ulv5750.1 kV=0.12 Vminpu=0.8 Vmaxpu=1.2 model=1 kW=1.77502 kvar=0.36043318379857026 Phases=1

New Load.load_p6ulv5750_2 conn=wye bus1=p6ulv5750.2 kV=0.12 Vminpu=0.8 Vmaxpu=1.2 model=1 kW=1.77502 kvar=0.36043318379857026 Phases=1

New Load.load_p6ulv5751_1 conn=wye bus1=p6ulv5751.1 kV=0.12 Vminpu=0.8 Vmaxpu=1.2 model=1 kW=0.555005 kvar=0.1150011013333981 Phases=1

New Load.load_p6ulv5751_2 conn=wye bus1=p6ulv5751.2 kV=0.12 Vminpu=0.8 Vmaxpu=1.2 model=1 kW=0.555005 kvar=0.1150011013333981 Phases=1

New Load.load_p6ulv5752_1 conn=wye bus1=p6ulv5752.1 kV=0.12 Vminpu=0.8 Vmaxpu=1.2 model=1 kW=1.20001 kvar=0.2449253710827086 Phases=1

New Load.load_p6ulv5752_2 conn=wye bus1=p6ulv5752.2 kV=0.12 Vminpu=0.8 Vmaxpu=1.2 model=1 kW=1.20001 kvar=0.2449253710827086 Phases=1

New Load.load_p6ulv5753_1 conn=wye bus1=p6ulv5753.1 kV=0.12 Vminpu=0.8 Vmaxpu=1.2 model=1 kW=0.675005 kvar=0.13493181221259629 Phases=1

New Load.load_p6ulv5753_2 conn=wye bus1=p6ulv5753.2 kV=0.12 Vminpu=0.8 Vmaxpu=1.2 model=1 kW=0.675005 kvar=0.13493181221259629 Phases=1

New Load.load_p6ulv5754_1 conn=wye bus1=p6ulv5754.1 kV=0.12 Vminpu=0.8 Vmaxpu=1.2 model=1 kW=1.545015 kvar=0.3153418489873843 Phases=1

New Load.load_p6ulv5754_2 conn=wye bus1=p6ulv5754.2 kV=0.12 Vminpu=0.8 Vmaxpu=1.2 model=1 kW=1.545015 kvar=0.3153418489873843 Phases=1

New Load.load_p6ulv5755_1 conn=wye bus1=p6ulv5755.1 kV=0.12 Vminpu=0.8 Vmaxpu=1.2 model=1 kW=0.95001 kvar=0.1948871509057869 Phases=1

New Load.load_p6ulv5755_2 conn=wye bus1=p6ulv5755.2 kV=0.12 Vminpu=0.8 Vmaxpu=1.2 model=1 kW=0.95001 kvar=0.1948871509057869 Phases=1

New Load.load_p6ulv5756_1 conn=wye bus1=p6ulv5756.1 kV=0.12 Vminpu=0.8 Vmaxpu=1.2 model=1 kW=1.20001 kvar=0.2449253710827086 Phases=1

New Load.load_p6ulv5756_2 conn=wye bus1=p6ulv5756.2 kV=0.12 Vminpu=0.8 Vmaxpu=1.2 model=1 kW=1.20001 kvar=0.2449253710827086 Phases=1

New Load.load_p6ulv5757_1 conn=wye bus1=p6ulv5757.1 kV=0.12 Vminpu=0.8 Vmaxpu=1.2 model=1 kW=1.23501 kvar=0.2501325352825422 Phases=1

New Load.load_p6ulv5757_2 conn=wye bus1=p6ulv5757.2 kV=0.12 Vminpu=0.8 Vmaxpu=1.2 model=1 kW=1.23501 kvar=0.2501325352825422 Phases=1

New Load.load_p6ulv5758_1 conn=wye bus1=p6ulv5758.1 kV=0.12 Vminpu=0.8 Vmaxpu=1.2 model=1 kW=1.325015 kvar=0.26974828589115185 Phases=1

New Load.load_p6ulv5758_2 conn=wye bus1=p6ulv5758.2 kV=0.12 Vminpu=0.8 Vmaxpu=1.2 model=1 kW=1.325015 kvar=0.26974828589115185 Phases=1

New Load.load_p6ulv5759_1 conn=wye bus1=p6ulv5759.1 kV=0.12 Vminpu=0.8 Vmaxpu=1.2 model=1 kW=1.18001 kvar=0.24022797842622015 Phases=1

New Load.load_p6ulv5759_2 conn=wye bus1=p6ulv5759.2 kV=0.12 Vminpu=0.8 Vmaxpu=1.2 model=1 kW=1.18001 kvar=0.24022797842622015 Phases=1

New Load.load_p6ulv5760_1 conn=wye bus1=p6ulv5760.1 kV=0.12 Vminpu=0.8 Vmaxpu=1.2 model=1 kW=0.6550050000000001 kvar=0.13504698994678754 Phases=1

New Load.load_p6ulv5760_2 conn=wye bus1=p6ulv5760.2 kV=0.12 Vminpu=0.8 Vmaxpu=1.2 model=1 kW=0.6550050000000001 kvar=0.13504698994678754 Phases=1

New Load.load_p6ulv5761_1 conn=wye bus1=p6ulv5761.1 kV=0.12 Vminpu=0.8 Vmaxpu=1.2 model=1 kW=1.260015 kvar=0.2551969186031145 Phases=1

New Load.load_p6ulv5761_2 conn=wye bus1=p6ulv5761.2 kV=0.12 Vminpu=0.8 Vmaxpu=1.2 model=1 kW=1.260015 kvar=0.2551969186031145 Phases=1

New Load.load_p6ulv5762_1 conn=wye bus1=p6ulv5762.1 kV=0.12 Vminpu=0.8 Vmaxpu=1.2 model=1 kW=1.03501 kvar=0.2101677443428008 Phases=1

New Load.load_p6ulv5762_2 conn=wye bus1=p6ulv5762.2 kV=0.12 Vminpu=0.8 Vmaxpu=1.2 model=1 kW=1.03501 kvar=0.2101677443428008 Phases=1

New Load.load_p6ulv5763_1 conn=wye bus1=p6ulv5763.1 kV=0.12 Vminpu=0.8 Vmaxpu=1.2 model=1 kW=0.84501 kvar=0.16980991337253348 Phases=1

New Load.load_p6ulv5763_2 conn=wye bus1=p6ulv5763.2 kV=0.12 Vminpu=0.8 Vmaxpu=1.2 model=1 kW=0.84501 kvar=0.16980991337253348 Phases=1

New Load.load_p6ulv5764_1 conn=wye bus1=p6ulv5764.1 kV=0.12 Vminpu=0.8 Vmaxpu=1.2 model=1 kW=1.355015 kvar=0.2751475310389853 Phases=1

New Load.load_p6ulv5764_2 conn=wye bus1=p6ulv5764.2 kV=0.12 Vminpu=0.8 Vmaxpu=1.2 model=1 kW=1.355015 kvar=0.2751475310389853 Phases=1

New Load.load_p6ulv5765_1 conn=wye bus1=p6ulv5765.1 kV=0.12 Vminpu=0.8 Vmaxpu=1.2 model=1 kW=1.10001 kvar=0.22508742647757143 Phases=1

New Load.load_p6ulv5765_2 conn=wye bus1=p6ulv5765.2 kV=0.12 Vminpu=0.8 Vmaxpu=1.2 model=1 kW=1.10001 kvar=0.22508742647757143 Phases=1

New Load.load_p6ulv5766_1 conn=wye bus1=p6ulv5766.1 kV=0.12 Vminpu=0.8 Vmaxpu=1.2 model=1 kW=0.4250045 kvar=0.08495733718047772 Phases=1

New Load.load_p6ulv5766_2 conn=wye bus1=p6ulv5766.2 kV=0.12 Vminpu=0.8 Vmaxpu=1.2 model=1 kW=0.4250045 kvar=0.08495733718047772 Phases=1

New Load.load_p6ulv5767_1 conn=wye bus1=p6ulv5767.1 kV=0.12 Vminpu=0.8 Vmaxpu=1.2 model=1 kW=0.76501 kvar=0.154941167129414 Phases=1

New Load.load_p6ulv5767_2 conn=wye bus1=p6ulv5767.2 kV=0.12 Vminpu=0.8 Vmaxpu=1.2 model=1 kW=0.76501 kvar=0.154941167129414 Phases=1

New Load.load_p6ulv5768_1 conn=wye bus1=p6ulv5768.1 kV=0.12 Vminpu=0.8 Vmaxpu=1.2 model=1 kW=0.595005 kvar=0.11988372241677617 Phases=1

New Load.load_p6ulv5768_2 conn=wye bus1=p6ulv5768.2 kV=0.12 Vminpu=0.8 Vmaxpu=1.2 model=1 kW=0.595005 kvar=0.11988372241677617 Phases=1

New Load.load_p6ulv5769_1 conn=wye bus1=p6ulv5769.1 kV=0.12 Vminpu=0.8 Vmaxpu=1.2 model=1 kW=1.03501 kvar=0.2101677443428008 Phases=1

New Load.load_p6ulv5769_2 conn=wye bus1=p6ulv5769.2 kV=0.12 Vminpu=0.8 Vmaxpu=1.2 model=1 kW=1.03501 kvar=0.2101677443428008 Phases=1

New Load.load_p6ulv5770_1 conn=wye bus1=p6ulv5770.1 kV=0.12 Vminpu=0.8 Vmaxpu=1.2 model=1 kW=1.01001 kvar=0.2050912778269507 Phases=1

New Load.load_p6ulv5770_2 conn=wye bus1=p6ulv5770.2 kV=0.12 Vminpu=0.8 Vmaxpu=1.2 model=1 kW=1.01001 kvar=0.2050912778269507 Phases=1

New Load.load_p6ulv5771_1 conn=wye bus1=p6ulv5771.1 kV=0.12 Vminpu=0.8 Vmaxpu=1.2 model=1 kW=1.89002 kvar=0.38477274242178006 Phases=1

New Load.load_p6ulv5771_2 conn=wye bus1=p6ulv5771.2 kV=0.12 Vminpu=0.8 Vmaxpu=1.2 model=1 kW=1.89002 kvar=0.38477274242178006 Phases=1

New Load.load_p6ulv5772_1 conn=wye bus1=p6ulv5772.1 kV=0.12 Vminpu=0.8 Vmaxpu=1.2 model=1 kW=0.84501 kvar=0.16980991337253348 Phases=1

New Load.load_p6ulv5772_2 conn=wye bus1=p6ulv5772.2 kV=0.12 Vminpu=0.8 Vmaxpu=1.2 model=1 kW=0.84501 kvar=0.16980991337253348 Phases=1

New Load.load_p6ulv5773_1 conn=wye bus1=p6ulv5773.1 kV=0.12 Vminpu=0.8 Vmaxpu=1.2 model=1 kW=0.4550045 kvar=0.0949796391471619 Phases=1

New Load.load_p6ulv5773_2 conn=wye bus1=p6ulv5773.2 kV=0.12 Vminpu=0.8 Vmaxpu=1.2 model=1 kW=0.4550045 kvar=0.0949796391471619 Phases=1

New Load.load_p6ulv5774_1 conn=wye bus1=p6ulv5774.1 kV=0.12 Vminpu=0.8 Vmaxpu=1.2 model=1 kW=1.02501 kvar=0.20974069600619585 Phases=1

New Load.load_p6ulv5774_2 conn=wye bus1=p6ulv5774.2 kV=0.12 Vminpu=0.8 Vmaxpu=1.2 model=1 kW=1.02501 kvar=0.20974069600619585 Phases=1

New Load.load_p6ulv5775_1 conn=wye bus1=p6ulv5775.1 kV=0.12 Vminpu=0.8 Vmaxpu=1.2 model=1 kW=0.710005 kvar=0.1449139907963921 Phases=1

New Load.load_p6ulv5775_2 conn=wye bus1=p6ulv5775.2 kV=0.12 Vminpu=0.8 Vmaxpu=1.2 model=1 kW=0.710005 kvar=0.1449139907963921 Phases=1

New Load.load_p6ulv5776_1 conn=wye bus1=p6ulv5776.1 kV=0.12 Vminpu=0.8 Vmaxpu=1.2 model=1 kW=1.00001 kvar=0.2051442614049283 Phases=1

New Load.load_p6ulv5776_2 conn=wye bus1=p6ulv5776.2 kV=0.12 Vminpu=0.8 Vmaxpu=1.2 model=1 kW=1.00001 kvar=0.2051442614049283 Phases=1

New Load.load_p6ulv5777_1 conn=wye bus1=p6ulv5777.1 kV=0.12 Vminpu=0.8 Vmaxpu=1.2 model=1 kW=0.540005 kvar=0.10993492384814621 Phases=1

New Load.load_p6ulv5777_2 conn=wye bus1=p6ulv5777.2 kV=0.12 Vminpu=0.8 Vmaxpu=1.2 model=1 kW=0.540005 kvar=0.10993492384814621 Phases=1

New Load.load_p6ulv5778_1 conn=wye bus1=p6ulv5778.1 kV=0.12 Vminpu=0.8 Vmaxpu=1.2 model=1 kW=0.80001 kvar=0.15991999924178213 Phases=1

New Load.load_p6ulv5778_2 conn=wye bus1=p6ulv5778.2 kV=0.12 Vminpu=0.8 Vmaxpu=1.2 model=1 kW=0.80001 kvar=0.15991999924178213 Phases=1

New Load.load_p6ulv5779_1 conn=wye bus1=p6ulv5779.1 kV=0.12 Vminpu=0.8 Vmaxpu=1.2 model=1 kW=0.745005 kvar=0.15010625560980215 Phases=1

New Load.load_p6ulv5779_2 conn=wye bus1=p6ulv5779.2 kV=0.12 Vminpu=0.8 Vmaxpu=1.2 model=1 kW=0.745005 kvar=0.15010625560980215 Phases=1

New Load.load_p6ulv5780_1 conn=wye bus1=p6ulv5780.1 kV=0.12 Vminpu=0.8 Vmaxpu=1.2 model=1 kW=0.690005 kvar=0.14011149113076612 Phases=1

New Load.load_p6ulv5780_2 conn=wye bus1=p6ulv5780.2 kV=0.12 Vminpu=0.8 Vmaxpu=1.2 model=1 kW=0.690005 kvar=0.14011149113076612 Phases=1

New Load.load_p6ulv5781_1 conn=wye bus1=p6ulv5781.1 kV=0.12 Vminpu=0.8 Vmaxpu=1.2 model=1 kW=0.725005 kvar=0.14985327275107757 Phases=1

New Load.load_p6ulv5781_2 conn=wye bus1=p6ulv5781.2 kV=0.12 Vminpu=0.8 Vmaxpu=1.2 model=1 kW=0.725005 kvar=0.14985327275107757 Phases=1

New Load.load_p6ulv5782_1 conn=wye bus1=p6ulv5782.1 kV=0.12 Vminpu=0.8 Vmaxpu=1.2 model=1 kW=0.385004 kvar=0.07997333434462686 Phases=1

New Load.load_p6ulv5782_2 conn=wye bus1=p6ulv5782.2 kV=0.12 Vminpu=0.8 Vmaxpu=1.2 model=1 kW=0.385004 kvar=0.07997333434462686 Phases=1

New Load.load_p6ulv5783_1 conn=wye bus1=p6ulv5783.1 kV=0.12 Vminpu=0.8 Vmaxpu=1.2 model=1 kW=0.6550050000000001 kvar=0.13504698994678754 Phases=1

New Load.load_p6ulv5783_2 conn=wye bus1=p6ulv5783.2 kV=0.12 Vminpu=0.8 Vmaxpu=1.2 model=1 kW=0.6550050000000001 kvar=0.13504698994678754 Phases=1

New Load.load_p6ulv5784_1 conn=wye bus1=p6ulv5784.1 kV=0.12 Vminpu=0.8 Vmaxpu=1.2 model=1 kW=0.88501 kvar=0.18017149277293337 Phases=1

New Load.load_p6ulv5784_2 conn=wye bus1=p6ulv5784.2 kV=0.12 Vminpu=0.8 Vmaxpu=1.2 model=1 kW=0.88501 kvar=0.18017149277293337 Phases=1

New Load.load_p6ulv5785_1 conn=wye bus1=p6ulv5785.1 kV=0.12 Vminpu=0.8 Vmaxpu=1.2 model=1 kW=0.595005 kvar=0.11988372241677617 Phases=1

New Load.load_p6ulv5785_2 conn=wye bus1=p6ulv5785.2 kV=0.12 Vminpu=0.8 Vmaxpu=1.2 model=1 kW=0.595005 kvar=0.11988372241677617 Phases=1

New Load.load_p6ulv5786_1 conn=wye bus1=p6ulv5786.1 kV=0.12 Vminpu=0.8 Vmaxpu=1.2 model=1 kW=0.550005 kvar=0.10994462467091208 Phases=1

New Load.load_p6ulv5786_2 conn=wye bus1=p6ulv5786.2 kV=0.12 Vminpu=0.8 Vmaxpu=1.2 model=1 kW=0.550005 kvar=0.10994462467091208 Phases=1

New Load.load_p6ulv5787_1 conn=wye bus1=p6ulv5787.1 kV=0.12 Vminpu=0.8 Vmaxpu=1.2 model=1 kW=0.740005 kvar=0.14987678380884176 Phases=1

New Load.load_p6ulv5787_2 conn=wye bus1=p6ulv5787.2 kV=0.12 Vminpu=0.8 Vmaxpu=1.2 model=1 kW=0.740005 kvar=0.14987678380884176 Phases=1

New Load.load_p6ulv5788_1 conn=wye bus1=p6ulv5788.1 kV=0.12 Vminpu=0.8 Vmaxpu=1.2 model=1 kW=0.515005 kvar=0.10511394966246143 Phases=1

New Load.load_p6ulv5788_2 conn=wye bus1=p6ulv5788.2 kV=0.12 Vminpu=0.8 Vmaxpu=1.2 model=1 kW=0.515005 kvar=0.10511394966246143 Phases=1

New Load.load_p6ulv5789_1 conn=wye bus1=p6ulv5789.1 kV=0.12 Vminpu=0.8 Vmaxpu=1.2 model=1 kW=0.80001 kvar=0.16494369115858584 Phases=1

New Load.load_p6ulv5789_2 conn=wye bus1=p6ulv5789.2 kV=0.12 Vminpu=0.8 Vmaxpu=1.2 model=1 kW=0.80001 kvar=0.16494369115858584 Phases=1

New Load.load_p6ulv5790_1 conn=wye bus1=p6ulv5790.1 kV=0.12 Vminpu=0.8 Vmaxpu=1.2 model=1 kW=0.98001 kvar=0.20002276057263293 Phases=1

New Load.load_p6ulv5790_2 conn=wye bus1=p6ulv5790.2 kV=0.12 Vminpu=0.8 Vmaxpu=1.2 model=1 kW=0.98001 kvar=0.20002276057263293 Phases=1

New Load.load_p6ulv5791_1 conn=wye bus1=p6ulv5791.1 kV=0.12 Vminpu=0.8 Vmaxpu=1.2 model=1 kW=0.3600035 kvar=0.07496466002030767 Phases=1

New Load.load_p6ulv5791_2 conn=wye bus1=p6ulv5791.2 kV=0.12 Vminpu=0.8 Vmaxpu=1.2 model=1 kW=0.3600035 kvar=0.07496466002030767 Phases=1

New Load.load_p6ulv5792_1 conn=wye bus1=p6ulv5792.1 kV=0.12 Vminpu=0.8 Vmaxpu=1.2 model=1 kW=0.570005 kvar=0.11514659243630554 Phases=1

New Load.load_p6ulv5792_2 conn=wye bus1=p6ulv5792.2 kV=0.12 Vminpu=0.8 Vmaxpu=1.2 model=1 kW=0.570005 kvar=0.11514659243630554 Phases=1

New Load.load_p6ulv5793_1 conn=wye bus1=p6ulv5793.1 kV=0.12 Vminpu=0.8 Vmaxpu=1.2 model=1 kW=0.84001 kvar=0.17013127906874298 Phases=1

New Load.load_p6ulv5793_2 conn=wye bus1=p6ulv5793.2 kV=0.12 Vminpu=0.8 Vmaxpu=1.2 model=1 kW=0.84001 kvar=0.17013127906874298 Phases=1

New Load.load_p6ulv5794_1 conn=wye bus1=p6ulv5794.1 kV=0.12 Vminpu=0.8 Vmaxpu=1.2 model=1 kW=0.77501 kvar=0.1549225617334453 Phases=1

New Load.load_p6ulv5794_2 conn=wye bus1=p6ulv5794.2 kV=0.12 Vminpu=0.8 Vmaxpu=1.2 model=1 kW=0.77501 kvar=0.1549225617334453 Phases=1

New Load.load_p6ulv5795 conn=wye bus1=p6ulv5795.1.2.3 kV=0.48 Vminpu=0.8 Vmaxpu=1.2 model=1 kW=28.120299999999997 kvar=5.710070454626391 Phases=3

New Load.load_p6ulv5796_1 conn=wye bus1=p6ulv5796.1 kV=0.12 Vminpu=0.8 Vmaxpu=1.2 model=1 kW=1.91502 kvar=0.6301159295839553 Phases=1

New Load.load_p6ulv5796_2 conn=wye bus1=p6ulv5796.2 kV=0.12 Vminpu=0.8 Vmaxpu=1.2 model=1 kW=1.91502 kvar=0.6301159295839553 Phases=1

New Load.load_p6ulv5797_1 conn=wye bus1=p6ulv5797.1 kV=0.12 Vminpu=0.8 Vmaxpu=1.2 model=1 kW=0.545005 kvar=0.11009634759475566 Phases=1

New Load.load_p6ulv5797_2 conn=wye bus1=p6ulv5797.2 kV=0.12 Vminpu=0.8 Vmaxpu=1.2 model=1 kW=0.545005 kvar=0.11009634759475566 Phases=1

New Load.load_p6ulv5798_1 conn=wye bus1=p6ulv5798.1 kV=0.12 Vminpu=0.8 Vmaxpu=1.2 model=1 kW=1.305015 kvar=0.2649945980072851 Phases=1

New Load.load_p6ulv5798_2 conn=wye bus1=p6ulv5798.2 kV=0.12 Vminpu=0.8 Vmaxpu=1.2 model=1 kW=1.305015 kvar=0.2649945980072851 Phases=1

New Load.load_p6ulv5799_1 conn=wye bus1=p6ulv5799.1 kV=0.12 Vminpu=0.8 Vmaxpu=1.2 model=1 kW=1.360015 kvar=0.27473634952721826 Phases=1

New Load.load_p6ulv5799_2 conn=wye bus1=p6ulv5799.2 kV=0.12 Vminpu=0.8 Vmaxpu=1.2 model=1 kW=1.360015 kvar=0.27473634952721826 Phases=1

New Load.load_p6ulv5800_1 conn=wye bus1=p6ulv5800.1 kV=0.12 Vminpu=0.8 Vmaxpu=1.2 model=1 kW=0.6600050000000001 kvar=0.13505225126346992 Phases=1

New Load.load_p6ulv5800_2 conn=wye bus1=p6ulv5800.2 kV=0.12 Vminpu=0.8 Vmaxpu=1.2 model=1 kW=0.6600050000000001 kvar=0.13505225126346992 Phases=1

New Load.load_p6ulv5801_1 conn=wye bus1=p6ulv5801.1 kV=0.12 Vminpu=0.8 Vmaxpu=1.2 model=1 kW=1.0600100000000001 kvar=0.2152442108586509 Phases=1

New Load.load_p6ulv5801_2 conn=wye bus1=p6ulv5801.2 kV=0.12 Vminpu=0.8 Vmaxpu=1.2 model=1 kW=1.0600100000000001 kvar=0.2152442108586509 Phases=1

New Load.load_p6ulv5802_1 conn=wye bus1=p6ulv5802.1 kV=0.12 Vminpu=0.8 Vmaxpu=1.2 model=1 kW=0.625005 kvar=0.12493693719592258 Phases=1

New Load.load_p6ulv5802_2 conn=wye bus1=p6ulv5802.2 kV=0.12 Vminpu=0.8 Vmaxpu=1.2 model=1 kW=0.625005 kvar=0.12493693719592258 Phases=1

New Load.load_p6ulv5803_1 conn=wye bus1=p6ulv5803.1 kV=0.12 Vminpu=0.8 Vmaxpu=1.2 model=1 kW=0.630005 kvar=0.12989256402840574 Phases=1

New Load.load_p6ulv5803_2 conn=wye bus1=p6ulv5803.2 kV=0.12 Vminpu=0.8 Vmaxpu=1.2 model=1 kW=0.630005 kvar=0.12989256402840574 Phases=1

New Load.load_p6ulv5804_1 conn=wye bus1=p6ulv5804.1 kV=0.12 Vminpu=0.8 Vmaxpu=1.2 model=1 kW=0.285003 kvar=0.06007252111934364 Phases=1

New Load.load_p6ulv5804_2 conn=wye bus1=p6ulv5804.2 kV=0.12 Vminpu=0.8 Vmaxpu=1.2 model=1 kW=0.285003 kvar=0.06007252111934364 Phases=1

New Load.load_p6ulv5805_1 conn=wye bus1=p6ulv5805.1 kV=0.12 Vminpu=0.8 Vmaxpu=1.2 model=1 kW=0.8600100000000002 kvar=0.17508196009045146 Phases=1

New Load.load_p6ulv5805_2 conn=wye bus1=p6ulv5805.2 kV=0.12 Vminpu=0.8 Vmaxpu=1.2 model=1 kW=0.8600100000000002 kvar=0.17508196009045146 Phases=1

New Load.load_p6ulv5806_1 conn=wye bus1=p6ulv5806.1 kV=0.12 Vminpu=0.8 Vmaxpu=1.2 model=1 kW=0.83001 kvar=0.16983919678061932 Phases=1

New Load.load_p6ulv5806_2 conn=wye bus1=p6ulv5806.2 kV=0.12 Vminpu=0.8 Vmaxpu=1.2 model=1 kW=0.83001 kvar=0.16983919678061932 Phases=1

New Load.load_p6ulv5807_1 conn=wye bus1=p6ulv5807.1 kV=0.12 Vminpu=0.8 Vmaxpu=1.2 model=1 kW=1.21501 kvar=0.24480453369905666 Phases=1

New Load.load_p6ulv5807_2 conn=wye bus1=p6ulv5807.2 kV=0.12 Vminpu=0.8 Vmaxpu=1.2 model=1 kW=1.21501 kvar=0.24480453369905666 Phases=1

New Load.load_p6ulv5808_1 conn=wye bus1=p6ulv5808.1 kV=0.12 Vminpu=0.8 Vmaxpu=1.2 model=1 kW=0.695005 kvar=0.14003207787879351 Phases=1

New Load.load_p6ulv5808_2 conn=wye bus1=p6ulv5808.2 kV=0.12 Vminpu=0.8 Vmaxpu=1.2 model=1 kW=0.695005 kvar=0.14003207787879351 Phases=1

New Load.load_p6ulv5809_1 conn=wye bus1=p6ulv5809.1 kV=0.12 Vminpu=0.8 Vmaxpu=1.2 model=1 kW=0.92501 kvar=0.19023773697225912 Phases=1

New Load.load_p6ulv5809_2 conn=wye bus1=p6ulv5809.2 kV=0.12 Vminpu=0.8 Vmaxpu=1.2 model=1 kW=0.92501 kvar=0.19023773697225912 Phases=1

New Load.load_p6ulv5810_1 conn=wye bus1=p6ulv5810.1 kV=0.12 Vminpu=0.8 Vmaxpu=1.2 model=1 kW=1.5350150000000002 kvar=0.3100880634180675 Phases=1

New Load.load_p6ulv5810_2 conn=wye bus1=p6ulv5810.2 kV=0.12 Vminpu=0.8 Vmaxpu=1.2 model=1 kW=1.5350150000000002 kvar=0.3100880634180675 Phases=1

New Load.load_p6ulv5811_1 conn=wye bus1=p6ulv5811.1 kV=0.12 Vminpu=0.8 Vmaxpu=1.2 model=1 kW=0.92501 kvar=0.19023773697225912 Phases=1

New Load.load_p6ulv5811_2 conn=wye bus1=p6ulv5811.2 kV=0.12 Vminpu=0.8 Vmaxpu=1.2 model=1 kW=0.92501 kvar=0.19023773697225912 Phases=1

New Load.load_p6ulv5812_1 conn=wye bus1=p6ulv5812.1 kV=0.12 Vminpu=0.8 Vmaxpu=1.2 model=1 kW=1.04001 kvar=0.21009220550641156 Phases=1

New Load.load_p6ulv5812_2 conn=wye bus1=p6ulv5812.2 kV=0.12 Vminpu=0.8 Vmaxpu=1.2 model=1 kW=1.04001 kvar=0.21009220550641156 Phases=1

New Load.load_p6ulv5813_1 conn=wye bus1=p6ulv5813.1 kV=0.12 Vminpu=0.8 Vmaxpu=1.2 model=1 kW=0.685005 kvar=0.14016782808726178 Phases=1

New Load.load_p6ulv5813_2 conn=wye bus1=p6ulv5813.2 kV=0.12 Vminpu=0.8 Vmaxpu=1.2 model=1 kW=0.685005 kvar=0.14016782808726178 Phases=1

New Load.load_p6ulv5814_1 conn=wye bus1=p6ulv5814.1 kV=0.12 Vminpu=0.8 Vmaxpu=1.2 model=1 kW=1.10001 kvar=0.22508742647757143 Phases=1

New Load.load_p6ulv5814_2 conn=wye bus1=p6ulv5814.2 kV=0.12 Vminpu=0.8 Vmaxpu=1.2 model=1 kW=1.10001 kvar=0.22508742647757143 Phases=1

New Load.load_p6ulv5815_1 conn=wye bus1=p6ulv5815.1 kV=0.12 Vminpu=0.8 Vmaxpu=1.2 model=1 kW=0.8700100000000001 kvar=0.1748338158521649 Phases=1

New Load.load_p6ulv5815_2 conn=wye bus1=p6ulv5815.2 kV=0.12 Vminpu=0.8 Vmaxpu=1.2 model=1 kW=0.8700100000000001 kvar=0.1748338158521649 Phases=1

New Load.load_p6ulv5816_1 conn=wye bus1=p6ulv5816.1 kV=0.12 Vminpu=0.8 Vmaxpu=1.2 model=1 kW=1.02001 kvar=0.20497723072995336 Phases=1

New Load.load_p6ulv5816_2 conn=wye bus1=p6ulv5816.2 kV=0.12 Vminpu=0.8 Vmaxpu=1.2 model=1 kW=1.02001 kvar=0.20497723072995336 Phases=1

New Load.load_p6ulv5817_1 conn=wye bus1=p6ulv5817.1 kV=0.12 Vminpu=0.8 Vmaxpu=1.2 model=1 kW=0.710005 kvar=0.1449139907963921 Phases=1

New Load.load_p6ulv5817_2 conn=wye bus1=p6ulv5817.2 kV=0.12 Vminpu=0.8 Vmaxpu=1.2 model=1 kW=0.710005 kvar=0.1449139907963921 Phases=1

New Load.load_p6ulv5818_1 conn=wye bus1=p6ulv5818.1 kV=0.12 Vminpu=0.8 Vmaxpu=1.2 model=1 kW=1.6500150000000002 kvar=0.3350498359260166 Phases=1

New Load.load_p6ulv5818_2 conn=wye bus1=p6ulv5818.2 kV=0.12 Vminpu=0.8 Vmaxpu=1.2 model=1 kW=1.6500150000000002 kvar=0.3350498359260166 Phases=1

New Load.load_p6ulv5819_1 conn=wye bus1=p6ulv5819.1 kV=0.12 Vminpu=0.8 Vmaxpu=1.2 model=1 kW=0.735005 kvar=0.15001656017253706 Phases=1

New Load.load_p6ulv5819_2 conn=wye bus1=p6ulv5819.2 kV=0.12 Vminpu=0.8 Vmaxpu=1.2 model=1 kW=0.735005 kvar=0.15001656017253706 Phases=1

New Load.load_p6ulv5820_1 conn=wye bus1=p6ulv5820.1 kV=0.12 Vminpu=0.8 Vmaxpu=1.2 model=1 kW=0.545005 kvar=0.11009634759475566 Phases=1

New Load.load_p6ulv5820_2 conn=wye bus1=p6ulv5820.2 kV=0.12 Vminpu=0.8 Vmaxpu=1.2 model=1 kW=0.545005 kvar=0.11009634759475566 Phases=1

New Load.load_p6ulv5821_1 conn=wye bus1=p6ulv5821.1 kV=0.12 Vminpu=0.8 Vmaxpu=1.2 model=1 kW=0.605005 kvar=0.12505014348972168 Phases=1

New Load.load_p6ulv5821_2 conn=wye bus1=p6ulv5821.2 kV=0.12 Vminpu=0.8 Vmaxpu=1.2 model=1 kW=0.605005 kvar=0.12505014348972168 Phases=1

New Load.load_p6ulv5822_1 conn=wye bus1=p6ulv5822.1 kV=0.12 Vminpu=0.8 Vmaxpu=1.2 model=1 kW=0.88501 kvar=0.18017149277293337 Phases=1

New Load.load_p6ulv5822_2 conn=wye bus1=p6ulv5822.2 kV=0.12 Vminpu=0.8 Vmaxpu=1.2 model=1 kW=0.88501 kvar=0.18017149277293337 Phases=1

New Load.load_p6ulv5823_1 conn=wye bus1=p6ulv5823.1 kV=0.12 Vminpu=0.8 Vmaxpu=1.2 model=1 kW=0.665005 kvar=0.135035024614916 Phases=1

New Load.load_p6ulv5823_2 conn=wye bus1=p6ulv5823.2 kV=0.12 Vminpu=0.8 Vmaxpu=1.2 model=1 kW=0.665005 kvar=0.135035024614916 Phases=1

New Load.load_p6ulv5824_1 conn=wye bus1=p6ulv5824.1 kV=0.12 Vminpu=0.8 Vmaxpu=1.2 model=1 kW=1.14001 kvar=0.23029318487261108 Phases=1

New Load.load_p6ulv5824_2 conn=wye bus1=p6ulv5824.2 kV=0.12 Vminpu=0.8 Vmaxpu=1.2 model=1 kW=1.14001 kvar=0.23029318487261108 Phases=1

New Load.load_p6ulv5825_1 conn=wye bus1=p6ulv5825.1 kV=0.12 Vminpu=0.8 Vmaxpu=1.2 model=1 kW=0.615005 kvar=0.12488209158321581 Phases=1

New Load.load_p6ulv5825_2 conn=wye bus1=p6ulv5825.2 kV=0.12 Vminpu=0.8 Vmaxpu=1.2 model=1 kW=0.615005 kvar=0.12488209158321581 Phases=1

New Load.load_p6ulv5826_1 conn=wye bus1=p6ulv5826.1 kV=0.12 Vminpu=0.8 Vmaxpu=1.2 model=1 kW=0.670005 kvar=0.13499498901328918 Phases=1

New Load.load_p6ulv5826_2 conn=wye bus1=p6ulv5826.2 kV=0.12 Vminpu=0.8 Vmaxpu=1.2 model=1 kW=0.670005 kvar=0.13499498901328918 Phases=1

New Load.load_p6ulv5827_1 conn=wye bus1=p6ulv5827.1 kV=0.12 Vminpu=0.8 Vmaxpu=1.2 model=1 kW=0.685005 kvar=0.14016782808726178 Phases=1

New Load.load_p6ulv5827_2 conn=wye bus1=p6ulv5827.2 kV=0.12 Vminpu=0.8 Vmaxpu=1.2 model=1 kW=0.685005 kvar=0.14016782808726178 Phases=1

New Load.load_p6ulv5828_1 conn=wye bus1=p6ulv5828.1 kV=0.12 Vminpu=0.8 Vmaxpu=1.2 model=1 kW=1.09001 kvar=0.22019269518951132 Phases=1

New Load.load_p6ulv5828_2 conn=wye bus1=p6ulv5828.2 kV=0.12 Vminpu=0.8 Vmaxpu=1.2 model=1 kW=1.09001 kvar=0.22019269518951132 Phases=1

New Load.load_p6ulv5829_1 conn=wye bus1=p6ulv5829.1 kV=0.12 Vminpu=0.8 Vmaxpu=1.2 model=1 kW=0.96501 kvar=0.19494147098176193 Phases=1

New Load.load_p6ulv5829_2 conn=wye bus1=p6ulv5829.2 kV=0.12 Vminpu=0.8 Vmaxpu=1.2 model=1 kW=0.96501 kvar=0.19494147098176193 Phases=1

New Load.load_p6ulv5830_1 conn=wye bus1=p6ulv5830.1 kV=0.12 Vminpu=0.8 Vmaxpu=1.2 model=1 kW=0.78001 kvar=0.16001297520870603 Phases=1

New Load.load_p6ulv5830_2 conn=wye bus1=p6ulv5830.2 kV=0.12 Vminpu=0.8 Vmaxpu=1.2 model=1 kW=0.78001 kvar=0.16001297520870603 Phases=1

New Load.load_p6ulv5831_1 conn=wye bus1=p6ulv5831.1 kV=0.12 Vminpu=0.8 Vmaxpu=1.2 model=1 kW=0.88501 kvar=0.18017149277293337 Phases=1

New Load.load_p6ulv5831_2 conn=wye bus1=p6ulv5831.2 kV=0.12 Vminpu=0.8 Vmaxpu=1.2 model=1 kW=0.88501 kvar=0.18017149277293337 Phases=1

New Load.load_p6ulv5832_1 conn=wye bus1=p6ulv5832.1 kV=0.12 Vminpu=0.8 Vmaxpu=1.2 model=1 kW=0.670005 kvar=0.13499498901328918 Phases=1

New Load.load_p6ulv5832_2 conn=wye bus1=p6ulv5832.2 kV=0.12 Vminpu=0.8 Vmaxpu=1.2 model=1 kW=0.670005 kvar=0.13499498901328918 Phases=1

New Load.load_p6ulv5833_1 conn=wye bus1=p6ulv5833.1 kV=0.12 Vminpu=0.8 Vmaxpu=1.2 model=1 kW=0.29500300000000007 kvar=0.060057096397208694 Phases=1

New Load.load_p6ulv5833_2 conn=wye bus1=p6ulv5833.2 kV=0.12 Vminpu=0.8 Vmaxpu=1.2 model=1 kW=0.29500300000000007 kvar=0.060057096397208694 Phases=1

New Load.load_p6ulv5834_1 conn=wye bus1=p6ulv5834.1 kV=0.12 Vminpu=0.8 Vmaxpu=1.2 model=1 kW=0.84501 kvar=0.16980991337253348 Phases=1

New Load.load_p6ulv5834_2 conn=wye bus1=p6ulv5834.2 kV=0.12 Vminpu=0.8 Vmaxpu=1.2 model=1 kW=0.84501 kvar=0.16980991337253348 Phases=1

New Load.load_p6ulv5835_1 conn=wye bus1=p6ulv5835.1 kV=0.12 Vminpu=0.8 Vmaxpu=1.2 model=1 kW=0.84001 kvar=0.17013127906874298 Phases=1

New Load.load_p6ulv5835_2 conn=wye bus1=p6ulv5835.2 kV=0.12 Vminpu=0.8 Vmaxpu=1.2 model=1 kW=0.84001 kvar=0.17013127906874298 Phases=1

New Load.load_p6ulv5836_1 conn=wye bus1=p6ulv5836.1 kV=0.12 Vminpu=0.8 Vmaxpu=1.2 model=1 kW=0.82001 kvar=0.16478601089290207 Phases=1

New Load.load_p6ulv5836_2 conn=wye bus1=p6ulv5836.2 kV=0.12 Vminpu=0.8 Vmaxpu=1.2 model=1 kW=0.82001 kvar=0.16478601089290207 Phases=1

New Load.load_p6ulv5837_1 conn=wye bus1=p6ulv5837.1 kV=0.12 Vminpu=0.8 Vmaxpu=1.2 model=1 kW=1.20001 kvar=0.2449253710827086 Phases=1

New Load.load_p6ulv5837_2 conn=wye bus1=p6ulv5837.2 kV=0.12 Vminpu=0.8 Vmaxpu=1.2 model=1 kW=1.20001 kvar=0.2449253710827086 Phases=1

New Load.load_p6ulv5838_1 conn=wye bus1=p6ulv5838.1 kV=0.12 Vminpu=0.8 Vmaxpu=1.2 model=1 kW=1.20501 kvar=0.2446877166505815 Phases=1

New Load.load_p6ulv5838_2 conn=wye bus1=p6ulv5838.2 kV=0.12 Vminpu=0.8 Vmaxpu=1.2 model=1 kW=1.20501 kvar=0.2446877166505815 Phases=1

New Load.load_p6ulv5839_1 conn=wye bus1=p6ulv5839.1 kV=0.12 Vminpu=0.8 Vmaxpu=1.2 model=1 kW=0.81001 kvar=0.16490289472548758 Phases=1

New Load.load_p6ulv5839_2 conn=wye bus1=p6ulv5839.2 kV=0.12 Vminpu=0.8 Vmaxpu=1.2 model=1 kW=0.81001 kvar=0.16490289472548758 Phases=1

New Load.load_p6ulv5840_1 conn=wye bus1=p6ulv5840.1 kV=0.12 Vminpu=0.8 Vmaxpu=1.2 model=1 kW=0.615005 kvar=0.12488209158321581 Phases=1

New Load.load_p6ulv5840_2 conn=wye bus1=p6ulv5840.2 kV=0.12 Vminpu=0.8 Vmaxpu=1.2 model=1 kW=0.615005 kvar=0.12488209158321581 Phases=1

New Load.load_p6ulv5841_1 conn=wye bus1=p6ulv5841.1 kV=0.12 Vminpu=0.8 Vmaxpu=1.2 model=1 kW=1.285015 kvar=0.2602602892495575 Phases=1

New Load.load_p6ulv5841_2 conn=wye bus1=p6ulv5841.2 kV=0.12 Vminpu=0.8 Vmaxpu=1.2 model=1 kW=1.285015 kvar=0.2602602892495575 Phases=1

New Load.load_p6ulv5842_1 conn=wye bus1=p6ulv5842.1 kV=0.12 Vminpu=0.8 Vmaxpu=1.2 model=1 kW=0.8600100000000002 kvar=0.17508196009045146 Phases=1

New Load.load_p6ulv5842_2 conn=wye bus1=p6ulv5842.2 kV=0.12 Vminpu=0.8 Vmaxpu=1.2 model=1 kW=0.8600100000000002 kvar=0.17508196009045146 Phases=1

New Load.load_p6ulv5843_1 conn=wye bus1=p6ulv5843.1 kV=0.12 Vminpu=0.8 Vmaxpu=1.2 model=1 kW=0.680005 kvar=0.13984996089752658 Phases=1

New Load.load_p6ulv5843_2 conn=wye bus1=p6ulv5843.2 kV=0.12 Vminpu=0.8 Vmaxpu=1.2 model=1 kW=0.680005 kvar=0.13984996089752658 Phases=1

New Load.load_p6ulv5844_1 conn=wye bus1=p6ulv5844.1 kV=0.12 Vminpu=0.8 Vmaxpu=1.2 model=1 kW=0.76001 kvar=0.15512015006255728 Phases=1

New Load.load_p6ulv5844_2 conn=wye bus1=p6ulv5844.2 kV=0.12 Vminpu=0.8 Vmaxpu=1.2 model=1 kW=0.76001 kvar=0.15512015006255728 Phases=1

New Load.load_p6ulv5845_1 conn=wye bus1=p6ulv5845.1 kV=0.12 Vminpu=0.8 Vmaxpu=1.2 model=1 kW=7.24505 kvar=1.4711701492263929 Phases=1

New Load.load_p6ulv5845_2 conn=wye bus1=p6ulv5845.2 kV=0.12 Vminpu=0.8 Vmaxpu=1.2 model=1 kW=7.24505 kvar=1.4711701492263929 Phases=1

New Load.load_p6ulv5846_1 conn=wye bus1=p6ulv5846.1 kV=0.12 Vminpu=0.8 Vmaxpu=1.2 model=1 kW=0.505005 kvar=0.09987245117230048 Phases=1

New Load.load_p6ulv5846_2 conn=wye bus1=p6ulv5846.2 kV=0.12 Vminpu=0.8 Vmaxpu=1.2 model=1 kW=0.505005 kvar=0.09987245117230048 Phases=1

New Load.load_p6ulv5847_1 conn=wye bus1=p6ulv5847.1 kV=0.12 Vminpu=0.8 Vmaxpu=1.2 model=1 kW=0.390004 kvar=0.08000628246214303 Phases=1

New Load.load_p6ulv5847_2 conn=wye bus1=p6ulv5847.2 kV=0.12 Vminpu=0.8 Vmaxpu=1.2 model=1 kW=0.390004 kvar=0.08000628246214303 Phases=1

New Load.load_p6ulv5848_1 conn=wye bus1=p6ulv5848.1 kV=0.12 Vminpu=0.8 Vmaxpu=1.2 model=1 kW=0.5300050000000001 kvar=0.11009305635610007 Phases=1
