New Load.motor_load_p6ulv977_2 conn=wye bus1=p6ulv977.2 kV=0.12 kW=1.0841349110062404 kvar=0.21682698220124808 Phases=1 Vminpu=0.0 Vmaxpu=1.2 model=1
New Load.motor_load_p6ulv978_2 conn=wye bus1=p6ulv978.2 kV=0.12 kW=1.130505004500105 kvar=0.22610100090002103 Phases=1 Vminpu=0.0 Vmaxpu=1.2 model=1
New Load.motor_load_p6ulv979_2 conn=wye bus1=p6ulv979.2 kV=0.12 kW=1.116892602324747 kvar=0.2233785204649494 Phases=1 Vminpu=0.0 Vmaxpu=1.2 model=1
New Load.motor_load_p6ulv5744_2 conn=wye bus1=p6ulv5744.2 kV=0.12 kW=1.1300590865176614 kvar=0.2260118173035323 Phases=1 Vminpu=0.0 Vmaxpu=1.2 model=1
New Load.motor_load_p6ulv5746_1 conn=wye bus1=p6ulv5746.1 kV=0.12 kW=1.1461910559199497 kvar=0.22923821118398996 Phases=1 Vminpu=0.0 Vmaxpu=1.2 model=1
New Load.motor_load_p6ulv5746_2 conn=wye bus1=p6ulv5746.2 kV=0.12 kW=1.1625170301782513 kvar=0.23250340603565026 Phases=1 Vminpu=0.0 Vmaxpu=1.2 model=1
New Load.motor_load_p6ulv5748_1 conn=wye bus1=p6ulv5748.1 kV=0.12 kW=1.0589302221310792 kvar=0.21178604442621585 Phases=1 Vminpu=0.0 Vmaxpu=1.2 model=1
New Load.motor_load_p6ulv5750_1 conn=wye bus1=p6ulv5750.1 kV=0.12 kW=1.1195141738185563 kvar=0.22390283476371128 Phases=1 Vminpu=0.0 Vmaxpu=1.2 model=1
New Load.motor_load_p6ulv5750_2 conn=wye bus1=p6ulv5750.2 kV=0.12 kW=1.117016469530934 kvar=0.2234032939061868 Phases=1 Vminpu=0.0 Vmaxpu=1.2 model=1
New Load.motor_load_p6ulv5751_2 conn=wye bus1=p6ulv5751.2 kV=0.12 kW=1.183843534005271 kvar=0.23676870680105422 Phases=1 Vminpu=0.0 Vmaxpu=1.2 model=1
New Load.motor_load_p6ulv5752_2 conn=wye bus1=p6ulv5752.2 kV=0.12 kW=1.2114677377758465 kvar=0.2422935475551693 Phases=1 Vminpu=0.0 Vmaxpu=1.2 model=1
New Load.motor_load_p6ulv5753_2 conn=wye bus1=p6ulv5753.2 kV=0.12 kW=1.1268378080072532 kvar=0.22536756160145066 Phases=1 Vminpu=0.0 Vmaxpu=1.2 model=1
New Load.motor_load_p6ulv5754_1 conn=wye bus1=p6ulv5754.1 kV=0.12 kW=1.2084901723379546 kvar=0.24169803446759094 Phases=1 Vminpu=0.0 Vmaxpu=1.2 model=1
New Load.motor_load_p6ulv5754_2 conn=wye bus1=p6ulv5754.2 kV=0.12 kW=1.1106236074641977 kvar=0.22212472149283957 Phases=1 Vminpu=0.0 Vmaxpu=1.2 model=1
New Load.motor_load_p6ulv5757_1 conn=wye bus1=p6ulv5757.1 kV=0.12 kW=1.2026769673199351 kvar=0.24053539346398703 Phases=1 Vminpu=0.0 Vmaxpu=1.2 model=1
New Load.motor_load_p6ulv5757_2 conn=wye bus1=p6ulv5757.2 kV=0.12 kW=1.2136024881609875 kvar=0.2427204976321975 Phases=1 Vminpu=0.0 Vmaxpu=1.2 model=1
New Load.motor_load_p6ulv5760_1 conn=wye bus1=p6ulv5760.1 kV=0.12 kW=1.1448284363618395 kvar=0.2289656872723679 Phases=1 Vminpu=0.0 Vmaxpu=1.2 model=1
New Load.motor_load_p6ulv5761_2 conn=wye bus1=p6ulv5761.2 kV=0.12 kW=1.2389927552056512 kvar=0.24779855104113024 Phases=1 Vminpu=0.0 Vmaxpu=1.2 model=1
New Load.motor_load_p6ulv5763_1 conn=wye bus1=p6ulv5763.1 kV=0.12 kW=1.2267500169946899 kvar=0.24535000339893798 Phases=1 Vminpu=0.0 Vmaxpu=1.2 model=1
New Load.motor_load_p6ulv5765_1 conn=wye bus1=p6ulv5765.1 kV=0.12 kW=1.198159081879091 kvar=0.2396318163758182 Phases=1 Vminpu=0.0 Vmaxpu=1.2 model=1
New Load.motor_load_p6ulv5765_2 conn=wye bus1=p6ulv5765.2 kV=0.12 kW=1.180046075198625 kvar=0.23600921503972502 Phases=1 Vminpu=0.0 Vmaxpu=1.2 model=1
New Load.motor_load_p6ulv5771_2 conn=wye bus1=p6ulv5771.2 kV=0.12 kW=1.2406494473762528 kvar=0.24812988947525058 Phases=1 Vminpu=0.0 Vmaxpu=1.2 model=1
New Load.motor_load_p6ulv5772_2 conn=wye bus1=p6ulv5772.2 kV=0.12 kW=1.211361302706342 kvar=0.24227226054126838 Phases=1 Vminpu=0.0 Vmaxpu=1.2 model=1
New Load.motor_load_p6ulv5775_1 conn=wye bus1=p6ulv5775.1 kV=0.12 kW=1.139642738915092 kvar=0.2279285477830184 Phases=1 Vminpu=0.0 Vmaxpu=1.2 model=1
New Load.motor_load_p6ulv5777_1 conn=wye bus1=p6ulv5777.1 kV=0.12 kW=1.1538357140090036 kvar=0.23076714280180075 Phases=1 Vminpu=0.0 Vmaxpu=1.2 model=1
New Load.motor_load_p6ulv5778_2 conn=wye bus1=p6ulv5778.2 kV=0.12 kW=1.1639116535208345 kvar=0.2327823307041669 Phases=1 Vminpu=0.0 Vmaxpu=1.2 model=1
New Load.motor_load_p6ulv5779_2 conn=wye bus1=p6ulv5779.2 kV=0.12 kW=1.1252083442383987 kvar=0.22504166884767973 Phases=1 Vminpu=0.0 Vmaxpu=1.2 model=1
New Load.motor_load_p6ulv5780_2 conn=wye bus1=p6ulv5780.2 kV=0.12 kW=1.1720520002348251 kvar=0.23441040004696503 Phases=1 Vminpu=0.0 Vmaxpu=1.2 model=1
New Load.motor_load_p6ulv5781_1 conn=wye bus1=p6ulv5781.1 kV=0.12 kW=1.1748282136391794 kvar=0.2349656427278359 Phases=1 Vminpu=0.0 Vmaxpu=1.2 model=1
New Load.motor_load_p6ulv5781_2 conn=wye bus1=p6ulv5781.2 kV=0.12 kW=1.2225556812628287 kvar=0.24451113625256574 Phases=1 Vminpu=0.0 Vmaxpu=1.2 model=1
New Load.motor_load_p6ulv5783_2 conn=wye bus1=p6ulv5783.2 kV=0.12 kW=1.1628704319315422 kvar=0.23257408638630844 Phases=1 Vminpu=0.0 Vmaxpu=1.2 model=1
New Load.motor_load_p6ulv5784_1 conn=wye bus1=p6ulv5784.1 kV=0.12 kW=1.1838546471487417 kvar=0.23677092942974834 Phases=1 Vminpu=0.0 Vmaxpu=1.2 model=1
New Load.motor_load_p6ulv5785_1 conn=wye bus1=p6ulv5785.1 kV=0.12 kW=1.13449749354531 kvar=0.226899498709062 Phases=1 Vminpu=0.0 Vmaxpu=1.2 model=1
New Load.motor_load_p6ulv5787_1 conn=wye bus1=p6ulv5787.1 kV=0.12 kW=1.1832270629147696 kvar=0.23664541258295393 Phases=1 Vminpu=0.0 Vmaxpu=1.2 model=1
New Load.motor_load_p6ulv5790_1 conn=wye bus1=p6ulv5790.1 kV=0.12 kW=1.1578936143684846 kvar=0.23157872287369693 Phases=1 Vminpu=0.0 Vmaxpu=1.2 model=1
New Load.motor_load_p6ulv5791_1 conn=wye bus1=p6ulv5791.1 kV=0.12 kW=1.1644397185566762 kvar=0.23288794371133525 Phases=1 Vminpu=0.0 Vmaxpu=1.2 model=1
New Load.motor_load_p6ulv5792_1 conn=wye bus1=p6ulv5792.1 kV=0.12 kW=1.1750924976051174 kvar=0.2350184995210235 Phases=1 Vminpu=0.0 Vmaxpu=1.2 model=1
New Load.motor_load_p6ulv5794_1 conn=wye bus1=p6ulv5794.1 kV=0.12 kW=1.1235896344286749 kvar=0.224717926885735 Phases=1 Vminpu=0.0 Vmaxpu=1.2 model=1
New Load.motor_load_p6ulv5795 conn=wye bus1=p6ulv5795.1.2.3 kV=0.48 kW=1.1784199898437429 kvar=0.2356839979687486 Phases=3 Vminpu=0.0 Vmaxpu=1.2 model=1
New Load.motor_load_p6ulv5798_1 conn=wye bus1=p6ulv5798.1 kV=0.12 kW=1.0581293834305996 kvar=0.21162587668611993 Phases=1 Vminpu=0.0 Vmaxpu=1.2 model=1
New Load.motor_load_p6ulv5801_2 conn=wye bus1=p6ulv5801.2 kV=0.12 kW=1.1099069739836007 kvar=0.22198139479672016 Phases=1 Vminpu=0.0 Vmaxpu=1.2 model=1
New Load.motor_load_p6ulv5804_2 conn=wye bus1=p6ulv5804.2 kV=0.12 kW=1.1238845987162163 kvar=0.22477691974324326 Phases=1 Vminpu=0.0 Vmaxpu=1.2 model=1
New Load.motor_load_p6ulv5807_2 conn=wye bus1=p6ulv5807.2 kV=0.12 kW=1.2465545872189374 kvar=0.2493109174437875 Phases=1 Vminpu=0.0 Vmaxpu=1.2 model=1
New Load.motor_load_p6ulv5809_1 conn=wye bus1=p6ulv5809.1 kV=0.12 kW=1.1374010175899267 kvar=0.22748020351798537 Phases=1 Vminpu=0.0 Vmaxpu=1.2 model=1
New Load.motor_load_p6ulv5810_2 conn=wye bus1=p6ulv5810.2 kV=0.12 kW=1.1993160179093878 kvar=0.23986320358187757 Phases=1 Vminpu=0.0 Vmaxpu=1.2 model=1
New Load.motor_load_p6ulv5811_1 conn=wye bus1=p6ulv5811.1 kV=0.12 kW=1.1313049797147783 kvar=0.22626099594295568 Phases=1 Vminpu=0.0 Vmaxpu=1.2 model=1
New Load.motor_load_p6ulv5813_2 conn=wye bus1=p6ulv5813.2 kV=0.12 kW=1.259712419996668 kvar=0.2519424839993336 Phases=1 Vminpu=0.0 Vmaxpu=1.2 model=1
New Load.motor_load_p6ulv5816_2 conn=wye bus1=p6ulv5816.2 kV=0.12 kW=1.1254456375067197 kvar=0.22508912750134394 Phases=1 Vminpu=0.0 Vmaxpu=1.2 model=1
New Load.motor_load_p6ulv5817_1 conn=wye bus1=p6ulv5817.1 kV=0.12 kW=1.2139172679326964 kvar=0.2427834535865393 Phases=1 Vminpu=0.0 Vmaxpu=1.2 model=1
New Load.motor_load_p6ulv5818_2 conn=wye bus1=p6ulv5818.2 kV=0.12 kW=1.211451434584696 kvar=0.2422902869169392 Phases=1 Vminpu=0.0 Vmaxpu=1.2 model=1
New Load.motor_load_p6ulv5820_1 conn=wye bus1=p6ulv5820.1 kV=0.12 kW=1.2387446702864298 kvar=0.24774893405728596 Phases=1 Vminpu=0.0 Vmaxpu=1.2 model=1
New Load.motor_load_p6ulv5825_1 conn=wye bus1=p6ulv5825.1 kV=0.12 kW=1.1227448001376346 kvar=0.22454896002752692 Phases=1 Vminpu=0.0 Vmaxpu=1.2 model=1
New Load.motor_load_p6ulv5826_1 conn=wye bus1=p6ulv5826.1 kV=0.12 kW=1.063763737715585 kvar=0.21275274754311702 Phases=1 Vminpu=0.0 Vmaxpu=1.2 model=1
New Load.motor_load_p6ulv5827_1 conn=wye bus1=p6ulv5827.1 kV=0.12 kW=1.188533668857709 kvar=0.23770673377154183 Phases=1 Vminpu=0.0 Vmaxpu=1.2 model=1
New Load.motor_load_p6ulv5830_1 conn=wye bus1=p6ulv5830.1 kV=0.12 kW=1.1874624757055818 kvar=0.23749249514111637 Phases=1 Vminpu=0.0 Vmaxpu=1.2 model=1
New Load.motor_load_p6ulv5831_2 conn=wye bus1=p6ulv5831.2 kV=0.12 kW=1.1374103706002785 kvar=0.22748207412005572 Phases=1 Vminpu=0.0 Vmaxpu=1.2 model=1
New Load.motor_load_p6ulv5834_2 conn=wye bus1=p6ulv5834.2 kV=0.12 kW=1.1814536393190949 kvar=0.236290727863819 Phases=1 Vminpu=0.0 Vmaxpu=1.2 model=1
New Load.motor_load_p6ulv5835_1 conn=wye bus1=p6ulv5835.1 kV=0.12 kW=1.1463615407242231 kvar=0.22927230814484464 Phases=1 Vminpu=0.0 Vmaxpu=1.2 model=1
New Load.motor_load_p6ulv5837_2 conn=wye bus1=p6ulv5837.2 kV=0.12 kW=1.0797542770034483 kvar=0.21595085540068967 Phases=1 Vminpu=0.0 Vmaxpu=1.2 model=1
New Load.motor_load_p6ulv5838_1 conn=wye bus1=p6ulv5838.1 kV=0.12 kW=1.0823087765988044 kvar=0.2164617553197609 Phases=1 Vminpu=0.0 Vmaxpu=1.2 model=1
New Load.motor_load_p6ulv5842_1 conn=wye bus1=p6ulv5842.1 kV=0.12 kW=1.0945911068724268 kvar=0.21891822137448536 Phases=1 Vminpu=0.0 Vmaxpu=1.2 model=1
New Load.motor_load_p6ulv5842_2 conn=wye bus1=p6ulv5842.2 kV=0.12 kW=1.1967738970841795 kvar=0.23935477941683592 Phases=1 Vminpu=0.0 Vmaxpu=1.2 model=1
New Load.motor_load_p6ulv5843_1 conn=wye bus1=p6ulv5843.1 kV=0.12 kW=1.1798327853075525 kvar=0.2359665570615105 Phases=1 Vminpu=0.0 Vmaxpu=1.2 model=1
New Load.motor_load_p6ulv5846_2 conn=wye bus1=p6ulv5846.2 kV=0.12 kW=1.181405979820158 kvar=0.2362811959640316 Phases=1 Vminpu=0.0 Vmaxpu=1.2 model=1
New Load.motor_load_p6ulv5857_2 conn=wye bus1=p6ulv5857.2 kV=0.12 kW=1.0555099398812327 kvar=0.21110198797624655 Phases=1 Vminpu=0.0 Vmaxpu=1.2 model=1
New Load.motor_load_p6ulv5858_1 conn=wye bus1=p6ulv5858.1 kV=0.12 kW=1.0780263581641885 kvar=0.21560527163283771 Phases=1 Vminpu=0.0 Vmaxpu=1.2 model=1
New Load.motor_load_p6ulv5859_1 conn=wye bus1=p6ulv5859.1 kV=0.12 kW=1.227035259564381 kvar=0.2454070519128762 Phases=1 Vminpu=0.0 Vmaxpu=1.2 model=1
New Load.motor_load_p6ulv5859_2 conn=wye bus1=p6ulv5859.2 kV=0.12 kW=1.1838136782619335 kvar=0.2367627356523867 Phases=1 Vminpu=0.0 Vmaxpu=1.2 model=1
New Load.motor_load_p6ulv5860_1 conn=wye bus1=p6ulv5860.1 kV=0.12 kW=1.1021560535822528 kvar=0.22043121071645055 Phases=1 Vminpu=0.0 Vmaxpu=1.2 model=1
New Load.motor_load_p6ulv5860_2 conn=wye bus1=p6ulv5860.2 kV=0.12 kW=1.126617510253444 kvar=0.2253235020506888 Phases=1 Vminpu=0.0 Vmaxpu=1.2 model=1
New Load.motor_load_p6ulv5861_1 conn=wye bus1=p6ulv5861.1 kV=0.12 kW=1.0866966447114768 kvar=0.21733932894229535 Phases=1 Vminpu=0.0 Vmaxpu=1.2 model=1
New Load.motor_load_p6ulv5864_2 conn=wye bus1=p6ulv5864.2 kV=0.12 kW=1.1212556260064086 kvar=0.22425112520128174 Phases=1 Vminpu=0.0 Vmaxpu=1.2 model=1
New Load.motor_load_p6ulv5868_1 conn=wye bus1=p6ulv5868.1 kV=0.12 kW=1.1790807418016191 kvar=0.23581614836032383 Phases=1 Vminpu=0.0 Vmaxpu=1.2 model=1
New Load.motor_load_p6ulv5874_1 conn=wye bus1=p6ulv5874.1 kV=0.12 kW=1.2191538561111668 kvar=0.24383077122223337 Phases=1 Vminpu=0.0 Vmaxpu=1.2 model=1
New Load.motor_load_p6ulv5875_1 conn=wye bus1=p6ulv5875.1 kV=0.12 kW=1.190240878016473 kvar=0.2380481756032946 Phases=1 Vminpu=0.0 Vmaxpu=1.2 model=1
New Load.motor_load_p6ulv5875_2 conn=wye bus1=p6ulv5875.2 kV=0.12 kW=1.1572541490473944 kvar=0.2314508298094789 Phases=1 Vminpu=0.0 Vmaxpu=1.2 model=1
New Load.motor_load_p6ulv5876_1 conn=wye bus1=p6ulv5876.1 kV=0.12 kW=1.1229132633858578 kvar=0.2245826526771716 Phases=1 Vminpu=0.0 Vmaxpu=1.2 model=1
New Load.motor_load_p6ulv5877_2 conn=wye bus1=p6ulv5877.2 kV=0.12 kW=1.1101992288659799 kvar=0.222039845773196 Phases=1 Vminpu=0.0 Vmaxpu=1.2 model=1
New Load.motor_load_p6ulv5878_1 conn=wye bus1=p6ulv5878.1 kV=0.12 kW=1.2486938417313223 kvar=0.24973876834626446 Phases=1 Vminpu=0.0 Vmaxpu=1.2 model=1
New Load.motor_load_p6ulv5879_2 conn=wye bus1=p6ulv5879.2 kV=0.12 kW=1.0650896548850795 kvar=0.2130179309770159 Phases=1 Vminpu=0.0 Vmaxpu=1.2 model=1
New Load.motor_load_p6ulv5881_1 conn=wye bus1=p6ulv5881.1 kV=0.12 kW=1.0634729690561757 kvar=0.21269459381123515 Phases=1 Vminpu=0.0 Vmaxpu=1.2 model=1
New Load.motor_load_p6ulv5883_2 conn=wye bus1=p6ulv5883.2 kV=0.12 kW=1.1495370956203392 kvar=0.22990741912406787 Phases=1 Vminpu=0.0 Vmaxpu=1.2 model=1
New Load.motor_load_p6ulv5884_1 conn=wye bus1=p6ulv5884.1 kV=0.12 kW=1.1576279563904355 kvar=0.2315255912780871 Phases=1 Vminpu=0.0 Vmaxpu=1.2 model=1
New Load.motor_load_p6ulv5885_1 conn=wye bus1=p6ulv5885.1 kV=0.12 kW=1.2608811450983106 kvar=0.25217622901966213 Phases=1 Vminpu=0.0 Vmaxpu=1.2 model=1
New Load.motor_load_p6ulv5888_1 conn=wye bus1=p6ulv5888.1 kV=0.12 kW=1.1339171427165504 kvar=0.2267834285433101 Phases=1 Vminpu=0.0 Vmaxpu=1.2 model=1
New Load.motor_load_p6ulv5889_1 conn=wye bus1=p6ulv5889.1 kV=0.12 kW=1.0535775215376872 kvar=0.21071550430753747 Phases=1 Vminpu=0.0 Vmaxpu=1.2 model=1
New Load.motor_load_p6ulv5890_1 conn=wye bus1=p6ulv5890.1 kV=0.12 kW=1.214797513630589 kvar=0.24295950272611783 Phases=1 Vminpu=0.0 Vmaxpu=1.2 model=1
New Load.motor_load_p6ulv5891_1 conn=wye bus1=p6ulv5891.1 kV=0.12 kW=1.1961133528414312 kvar=0.23922267056828625 Phases=1 Vminpu=0.0 Vmaxpu=1.2 model=1
New Load.motor_load_p6ulv5893_2 conn=wye bus1=p6ulv5893.2 kV=0.12 kW=1.1984370324381373 kvar=0.23968740648762746 Phases=1 Vminpu=0.0 Vmaxpu=1.2 model=1
New Load.motor_load_p6ulv5895_2 conn=wye bus1=p6ulv5895.2 kV=0.12 kW=1.1638647995526228 kvar=0.23277295991052457 Phases=1 Vminpu=0.0 Vmaxpu=1.2 model=1
New Load.motor_load_p6ulv5896_1 conn=wye bus1=p6ulv5896.1 kV=0.12 kW=1.1311659701182475 kvar=0.2262331940236495 Phases=1 Vminpu=0.0 Vmaxpu=1.2 model=1
New Load.motor_load_p6ulv5897_2 conn=wye bus1=p6ulv5897.2 kV=0.12 kW=1.0711879829972863 kvar=0.2142375965994573 Phases=1 Vminpu=0.0 Vmaxpu=1.2 model=1
New Load.motor_load_p6ulv5899_2 conn=wye bus1=p6ulv5898.2 kV=0.12 kW=1.0740325697763868 kvar=0.2148065139552774 Phases=1 Vminpu=0.0 Vmaxpu=1.2 model=1
New Load.motor_load_p6ulv5903_2 conn=wye bus1=p6ulv5903.2 kV=0.12 kW=1.089594209855535 kvar=0.217918841971107 Phases=1 Vminpu=0.0 Vmaxpu=1.2 model=1
New Load.motor_load_p6ulv5904_2 conn=wye bus1=p6ulv5904.2 kV=0.12 kW=1.211287171577982 kvar=0.24225743431559643 Phases=1 Vminpu=0.0 Vmaxpu=1.2 model=1
New Load.motor_load_p6ulv5905_1 conn=wye bus1=p6ulv5905.1 kV=0.12 kW=1.178875351521877 kvar=0.23577507030437542 Phases=1 Vminpu=0.0 Vmaxpu=1.2 model=1
New Load.motor_load_p6ulv5911_1 conn=wye bus1=p6ulv5910.1 kV=0.12 kW=1.1739105457664072 kvar=0.23478210915328146 Phases=1 Vminpu=0.0 Vmaxpu=1.2 model=1
New Load.motor_load_p6ulv5912_2 conn=wye bus1=p6ulv5912.2 kV=0.12 kW=1.192362495632421 kvar=0.23847249912648422 Phases=1 Vminpu=0.0 Vmaxpu=1.2 model=1
New Load.motor_load_p6ulv5916_1 conn=wye bus1=p6ulv5916.1 kV=0.12 kW=1.184588604908112 kvar=0.23691772098162242 Phases=1 Vminpu=0.0 Vmaxpu=1.2 model=1
New Load.motor_load_p6ulv5919_2 conn=wye bus1=p6ulv5919.2 kV=0.12 kW=1.2513589253068615 kvar=0.2502717850613723 Phases=1 Vminpu=0.0 Vmaxpu=1.2 model=1
New Load.motor_load_p6ulv5923_1 conn=wye bus1=p6ulv5922.1 kV=0.12 kW=1.0972872202580286 kvar=0.21945744405160572 Phases=1 Vminpu=0.0 Vmaxpu=1.2 model=1
New Load.motor_load_p6ulv5928_1 conn=wye bus1=p6ulv5928.1 kV=0.12 kW=1.1332992679557394 kvar=0.2266598535911479 Phases=1 Vminpu=0.0 Vmaxpu=1.2 model=1
New Load.motor_load_p6ulv5929 conn=wye bus1=p6ulv5929.1.2.3 kV=0.48 kW=1.1409888087130833 kvar=0.22819776174261666 Phases=3 Vminpu=0.0 Vmaxpu=1.2 model=1
New Load.motor_load_p6ulv5931_1 conn=wye bus1=p6ulv5931.1 kV=0.12 kW=1.1345170549081842 kvar=0.22690341098163685 Phases=1 Vminpu=0.0 Vmaxpu=1.2 model=1
New Load.motor_load_p6ulv5932_2 conn=wye bus1=p6ulv5932.2 kV=0.12 kW=1.215744928764673 kvar=0.24314898575293464 Phases=1 Vminpu=0.0 Vmaxpu=1.2 model=1
New Load.motor_load_p6ulv5938_2 conn=wye bus1=p6ulv5938.2 kV=0.12 kW=1.076560428087244 kvar=0.21531208561744883 Phases=1 Vminpu=0.0 Vmaxpu=1.2 model=1
New Load.motor_load_p6ulv5940_1 conn=wye bus1=p6ulv5940.1 kV=0.12 kW=1.0855641619545202 kvar=0.21711283239090406 Phases=1 Vminpu=0.0 Vmaxpu=1.2 model=1
New Load.motor_load_p6ulv5944_2 conn=wye bus1=p6ulv5944.2 kV=0.12 kW=1.1103572643621524 kvar=0.2220714528724305 Phases=1 Vminpu=0.0 Vmaxpu=1.2 model=1
New Load.motor_load_p6ulv5945_1 conn=wye bus1=p6ulv5945.1 kV=0.12 kW=1.2140422695059232 kvar=0.24280845390118466 Phases=1 Vminpu=0.0 Vmaxpu=1.2 model=1
New Load.motor_load_p6ulv5946_2 conn=wye bus1=p6ulv5946.2 kV=0.12 kW=1.1040617505876664 kvar=0.2208123501175333 Phases=1 Vminpu=0.0 Vmaxpu=1.2 model=1
New Load.motor_load_p6ulv5947_2 conn=wye bus1=p6ulv5947.2 kV=0.12 kW=1.0799372529358937 kvar=0.21598745058717875 Phases=1 Vminpu=0.0 Vmaxpu=1.2 model=1
New Load.motor_load_p6ulv5949_2 conn=wye bus1=p6ulv5949.2 kV=0.12 kW=1.089547320181535 kvar=0.21790946403630704 Phases=1 Vminpu=0.0 Vmaxpu=1.2 model=1
New Load.motor_load_p6ulv5950_1 conn=wye bus1=p6ulv5950.1 kV=0.12 kW=1.2045850460318341 kvar=0.24091700920636683 Phases=1 Vminpu=0.0 Vmaxpu=1.2 model=1
New Load.motor_load_p6ulv5954_1 conn=wye bus1=p6ulv5954.1 kV=0.12 kW=1.0563318878550605 kvar=0.2112663775710121 Phases=1 Vminpu=0.0 Vmaxpu=1.2 model=1
New Load.motor_load_p6ulv5955_1 conn=wye bus1=p6ulv5955.1 kV=0.12 kW=1.254793595027837 kvar=0.25095871900556743 Phases=1 Vminpu=0.0 Vmaxpu=1.2 model=1
New Load.motor_load_p6ulv5955_2 conn=wye bus1=p6ulv5955.2 kV=0.12 kW=1.1961682991767688 kvar=0.23923365983535377 Phases=1 Vminpu=0.0 Vmaxpu=1.2 model=1
New Load.motor_load_p6ulv5958_1 conn=wye bus1=p6ulv5958.1 kV=0.12 kW=1.1460871370377546 kvar=0.2292174274075509 Phases=1 Vminpu=0.0 Vmaxpu=1.2 model=1
New Load.motor_load_p6ulv5959_1 conn=wye bus1=p6ulv5959.1 kV=0.12 kW=1.1205088107357453 kvar=0.22410176214714905 Phases=1 Vminpu=0.0 Vmaxpu=1.2 model=1
New Load.motor_load_p6ulv5960_2 conn=wye bus1=p6ulv5960.2 kV=0.12 kW=1.1724480163469322 kvar=0.23448960326938645 Phases=1 Vminpu=0.0 Vmaxpu=1.2 model=1
New Load.motor_load_p6ulv5961_2 conn=wye bus1=p6ulv5961.2 kV=0.12 kW=1.0738962632676379 kvar=0.2147792526535276 Phases=1 Vminpu=0.0 Vmaxpu=1.2 model=1
New Load.motor_load_p6ulv5963_1 conn=wye bus1=p6ulv5963.1 kV=0.12 kW=1.103263413835241 kvar=0.22065268276704822 Phases=1 Vminpu=0.0 Vmaxpu=1.2 model=1
New Load.motor_load_p6ulv5965_2 conn=wye bus1=p6ulv5965.2 kV=0.12 kW=1.185702856216332 kvar=0.23714057124326643 Phases=1 Vminpu=0.0 Vmaxpu=1.2 model=1
New Load.motor_load_p6ulv5966_1 conn=wye bus1=p6ulv5966.1 kV=0.12 kW=1.253223532728173 kvar=0.25064470654563464 Phases=1 Vminpu=0.0 Vmaxpu=1.2 model=1
New Load.motor_load_p6ulv5968_2 conn=wye bus1=p6ulv5968.2 kV=0.12 kW=1.1921548738374397 kvar=0.23843097476748795 Phases=1 Vminpu=0.0 Vmaxpu=1.2 model=1
New Load.motor_load_p6ulv5969_2 conn=wye bus1=p6ulv5969.2 kV=0.12 kW=1.2431183909750676 kvar=0.24862367819501352 Phases=1 Vminpu=0.0 Vmaxpu=1.2 model=1
New Load.motor_load_p6ulv5970_2 conn=wye bus1=p6ulv5970.2 kV=0.12 kW=1.2614407852759812 kvar=0.25228815705519625 Phases=1 Vminpu=0.0 Vmaxpu=1.2 model=1
New Load.motor_load_p6ulv5971_1 conn=wye bus1=p6ulv5971.1 kV=0.12 kW=1.1522719853794052 kvar=0.23045439707588106 Phases=1 Vminpu=0.0 Vmaxpu=1.2 model=1
New Load.motor_load_p6ulv5971_2 conn=wye bus1=p6ulv5971.2 kV=0.12 kW=1.0535964445046333 kvar=0.21071928890092667 Phases=1 Vminpu=0.0 Vmaxpu=1.2 model=1
New Load.motor_load_p6ulv5972_2 conn=wye bus1=p6ulv5972.2 kV=0.12 kW=1.1195868453860174 kvar=0.2239173690772035 Phases=1 Vminpu=0.0 Vmaxpu=1.2 model=1
New Load.motor_load_p6ulv5973_1 conn=wye bus1=p6ulv5973.1 kV=0.12 kW=1.140882180615476 kvar=0.22817643612309524 Phases=1 Vminpu=0.0 Vmaxpu=1.2 model=1
New Load.motor_load_p6ulv5973_2 conn=wye bus1=p6ulv5973.2 kV=0.12 kW=1.054887081951997 kvar=0.21097741639039944 Phases=1 Vminpu=0.0 Vmaxpu=1.2 model=1
New Load.motor_load_p6ulv5976_2 conn=wye bus1=p6ulv5976.2 kV=0.12 kW=1.2056379505494539 kvar=0.2411275901098908 Phases=1 Vminpu=0.0 Vmaxpu=1.2 model=1
New Load.motor_load_p6ulv5977_1 conn=wye bus1=p6ulv5977.1 kV=0.12 kW=1.2413591995132707 kvar=0.24827183990265414 Phases=1 Vminpu=0.0 Vmaxpu=1.2 model=1
New Load.motor_load_p6ulv5980_2 conn=wye bus1=p6ulv5980.2 kV=0.12 kW=1.120868314429725 kvar=0.22417366288594498 Phases=1 Vminpu=0.0 Vmaxpu=1.2 model=1
New Load.motor_load_p6ulv5981_2 conn=wye bus1=p6ulv5981.2 kV=0.12 kW=1.186022773492004 kvar=0.2372045546984008 Phases=1 Vminpu=0.0 Vmaxpu=1.2 model=1
New Load.motor_load_p6ulv5982_1 conn=wye bus1=p6ulv5982.1 kV=0.12 kW=1.1738317679452024 kvar=0.2347663535890405 Phases=1 Vminpu=0.0 Vmaxpu=1.2 model=1
New Load.motor_load_p6ulv5982_2 conn=wye bus1=p6ulv5982.2 kV=0.12 kW=1.1233457403605802 kvar=0.22466914807211605 Phases=1 Vminpu=0.0 Vmaxpu=1.2 model=1
New Load.motor_load_p6ulv5983_2 conn=wye bus1=p6ulv5983.2 kV=0.12 kW=1.1792171722712377 kvar=0.23584343445424755 Phases=1 Vminpu=0.0 Vmaxpu=1.2 model=1
New Load.motor_load_p6ulv5984_1 conn=wye bus1=p6ulv5984.1 kV=0.12 kW=1.148167001498257 kvar=0.2296334002996514 Phases=1 Vminpu=0.0 Vmaxpu=1.2 model=1
New Load.motor_load_p6ulv5984_2 conn=wye bus1=p6ulv5984.2 kV=0.12 kW=1.0632650062733795 kvar=0.2126530012546759 Phases=1 Vminpu=0.0 Vmaxpu=1.2 model=1
New Load.motor_load_p6ulv5986_2 conn=wye bus1=p6ulv5986.2 kV=0.12 kW=1.1985252096263763 kvar=0.23970504192527528 Phases=1 Vminpu=0.0 Vmaxpu=1.2 model=1
New Load.motor_load_p6ulv5987_2 conn=wye bus1=p6ulv5987.2 kV=0.12 kW=1.0631077602329153 kvar=0.21262155204658306 Phases=1 Vminpu=0.0 Vmaxpu=1.2 model=1
New Load.motor_load_p6ulv5988_1 conn=wye bus1=p6ulv5988.1 kV=0.12 kW=1.0735352986829132 kvar=0.21470705973658266 Phases=1 Vminpu=0.0 Vmaxpu=1.2 model=1
New Load.motor_load_p6ulv5989_1 conn=wye bus1=p6ulv5988.1 kV=0.12 kW=1.1044873939984143 kvar=0.22089747879968288 Phases=1 Vminpu=0.0 Vmaxpu=1.2 model=1
New Load.motor_load_p6ulv5989_2 conn=wye bus1=p6ulv5988.2 kV=0.12 kW=1.072154535642789 kvar=0.21443090712855783 Phases=1 Vminpu=0.0 Vmaxpu=1.2 model=1
New Load.motor_load_p6ulv5990_1 conn=wye bus1=p6ulv5990.1 kV=0.12 kW=1.0899406343112235 kvar=0.2179881268622447 Phases=1 Vminpu=0.0 Vmaxpu=1.2 model=1
New Load.motor_load_p6ulv5993_2 conn=wye bus1=p6ulv5993.2 kV=0.12 kW=1.1056565838800312 kvar=0.22113131677600625 Phases=1 Vminpu=0.0 Vmaxpu=1.2 model=1
New Load.motor_load_p6ulv5995_2 conn=wye bus1=p6ulv5994.2 kV=0.12 kW=1.2535227240108542 kvar=0.25070454480217086 Phases=1 Vminpu=0.0 Vmaxpu=1.2 model=1
New Load.motor_load_p6ulv5997_2 conn=wye bus1=p6ulv5997.2 kV=0.12 kW=1.0826653634031855 kvar=0.21653307268063712 Phases=1 Vminpu=0.0 Vmaxpu=1.2 model=1
New Load.motor_load_p6ulv5999_1 conn=wye bus1=p6ulv5999.1 kV=0.12 kW=1.238277127280058 kvar=0.2476554254560116 Phases=1 Vminpu=0.0 Vmaxpu=1.2 model=1
New Load.motor_load_p6ulv5999_2 conn=wye bus1=p6ulv5999.2 kV=0.12 kW=1.2307030794452911 kvar=0.24614061588905822 Phases=1 Vminpu=0.0 Vmaxpu=1.2 model=1
New Load.motor_load_p6ulv6002_1 conn=wye bus1=p6ulv6002.1 kV=0.12 kW=1.2118315357010003 kvar=0.24236630714020008 Phases=1 Vminpu=0.0 Vmaxpu=1.2 model=1
New Load.motor_load_p6ulv6002_2 conn=wye bus1=p6ulv6002.2 kV=0.12 kW=1.2059456868642575 kvar=0.24118913737285153 Phases=1 Vminpu=0.0 Vmaxpu=1.2 model=1
New Load.motor_load_p6ulv6003_1 conn=wye bus1=p6ulv6003.1 kV=0.12 kW=1.1962851394505751 kvar=0.23925702789011505 Phases=1 Vminpu=0.0 Vmaxpu=1.2 model=1
New Load.motor_load_p6ulv6003_2 conn=wye bus1=p6ulv6003.2 kV=0.12 kW=1.0928664950988052 kvar=0.21857329901976105 Phases=1 Vminpu=0.0 Vmaxpu=1.2 model=1
New Load.motor_load_p6ulv6004_2 conn=wye bus1=p6ulv6004.2 kV=0.12 kW=1.1567641905686292 kvar=0.23135283811372587 Phases=1 Vminpu=0.0 Vmaxpu=1.2 model=1
New Load.motor_load_p6ulv6006_1 conn=wye bus1=p6ulv6006.1 kV=0.12 kW=1.1949224133144136 kvar=0.23898448266288275 Phases=1 Vminpu=0.0 Vmaxpu=1.2 model=1
New Load.motor_load_p6ulv6678_1 conn=wye bus1=p6ulv6678.1 kV=0.12 kW=1.1568966221147747 kvar=0.23137932442295495 Phases=1 Vminpu=0.0 Vmaxpu=1.2 model=1
New Load.motor_load_p6ulv6678_2 conn=wye bus1=p6ulv6678.2 kV=0.12 kW=1.13271966314081 kvar=0.22654393262816203 Phases=1 Vminpu=0.0 Vmaxpu=1.2 model=1
New Load.motor_load_p6ulv6682_1 conn=wye bus1=p6ulv6682.1 kV=0.12 kW=1.0690786696598382 kvar=0.21381573393196765 Phases=1 Vminpu=0.0 Vmaxpu=1.2 model=1
New Load.motor_load_p6ulv6684_1 conn=wye bus1=p6ulv6684.1 kV=0.12 kW=1.1804312620504134 kvar=0.2360862524100827 Phases=1 Vminpu=0.0 Vmaxpu=1.2 model=1
New Load.motor_load_p6ulv6686_1 conn=wye bus1=p6ulv6686.1 kV=0.12 kW=1.1564552647783326 kvar=0.23129105295566654 Phases=1 Vminpu=0.0 Vmaxpu=1.2 model=1
New Load.motor_load_p6ulv6688_1 conn=wye bus1=p6ulv6688.1 kV=0.12 kW=1.1392199825891882 kvar=0.22784399651783765 Phases=1 Vminpu=0.0 Vmaxpu=1.2 model=1
New Load.motor_load_p6ulv6688_2 conn=wye bus1=p6ulv6688.2 kV=0.12 kW=1.133955175663387 kvar=0.2267910351326774 Phases=1 Vminpu=0.0 Vmaxpu=1.2 model=1
New Load.motor_load_p6ulv6689_1 conn=wye bus1=p6ulv6689.1 kV=0.12 kW=1.0991729661125091 kvar=0.21983459322250185 Phases=1 Vminpu=0.0 Vmaxpu=1.2 model=1
New Load.motor_load_p6ulv6690_1 conn=wye bus1=p6ulv6690.1 kV=0.12 kW=1.1661765373507642 kvar=0.23323530747015286 Phases=1 Vminpu=0.0 Vmaxpu=1.2 model=1
New Load.motor_load_p6ulv6692_1 conn=wye bus1=p6ulv6692.1 kV=0.12 kW=1.2413608532643436 kvar=0.24827217065286875 Phases=1 Vminpu=0.0 Vmaxpu=1.2 model=1
New Load.motor_load_p6ulv6693_1 conn=wye bus1=p6ulv6693.1 kV=0.12 kW=1.2586469217934628 kvar=0.2517293843586926 Phases=1 Vminpu=0.0 Vmaxpu=1.2 model=1
New Load.motor_load_p6ulv6697_2 conn=wye bus1=p6ulv6697.2 kV=0.12 kW=1.2364455359380895 kvar=0.2472891071876179 Phases=1 Vminpu=0.0 Vmaxpu=1.2 model=1
New Load.motor_load_p6ulv6698_2 conn=wye bus1=p6ulv6698.2 kV=0.12 kW=1.120427629967174 kvar=0.22408552599343481 Phases=1 Vminpu=0.0 Vmaxpu=1.2 model=1
New Load.motor_load_p6ulv6701_2 conn=wye bus1=p6ulv6701.2 kV=0.12 kW=1.0994023009376455 kvar=0.2198804601875291 Phases=1 Vminpu=0.0 Vmaxpu=1.2 model=1
New Load.motor_load_p6ulv9650_1 conn=wye bus1=p6ulv9650.1 kV=0.12 kW=1.1966905864843902 kvar=0.23933811729687804 Phases=1 Vminpu=0.0 Vmaxpu=1.2 model=1
New Load.motor_load_p6ulv9654_1 conn=wye bus1=p6ulv9654.1 kV=0.12 kW=1.0643712668350815 kvar=0.21287425336701632 Phases=1 Vminpu=0.0 Vmaxpu=1.2 model=1
New Load.motor_load_p6ulv9656_1 conn=wye bus1=p6ulv9656.1 kV=0.12 kW=1.0764036702667208 kvar=0.21528073405334416 Phases=1 Vminpu=0.0 Vmaxpu=1.2 model=1
New Load.motor_load_p6ulv9656_2 conn=wye bus1=p6ulv9656.2 kV=0.12 kW=1.2009771433144782 kvar=0.24019542866289567 Phases=1 Vminpu=0.0 Vmaxpu=1.2 model=1
New Load.motor_load_p6ulv9660_2 conn=wye bus1=p6ulv9660.2 kV=0.12 kW=1.1239877012901682 kvar=0.22479754025803367 Phases=1 Vminpu=0.0 Vmaxpu=1.2 model=1
New Load.motor_load_p6ulv9662_2 conn=wye bus1=p6ulv9662.2 kV=0.12 kW=1.2060503848503883 kvar=0.24121007697007768 Phases=1 Vminpu=0.0 Vmaxpu=1.2 model=1
New Load.motor_load_p6ulv9665_2 conn=wye bus1=p6ulv9665.2 kV=0.12 kW=1.2320294533791913 kvar=0.2464058906758383 Phases=1 Vminpu=0.0 Vmaxpu=1.2 model=1
New Load.motor_load_p6ulv9666_2 conn=wye bus1=p6ulv9666.2 kV=0.12 kW=1.2594689020697716 kvar=0.2518937804139543 Phases=1 Vminpu=0.0 Vmaxpu=1.2 model=1
New Load.motor_load_p6ulv9668_1 conn=wye bus1=p6ulv9664.1 kV=0.12 kW=1.1894828261888735 kvar=0.2378965652377747 Phases=1 Vminpu=0.0 Vmaxpu=1.2 model=1
New Load.motor_load_p6ulv9670_1 conn=wye bus1=p6ulv9670.1 kV=0.12 kW=1.06633226745903 kvar=0.21326645349180604 Phases=1 Vminpu=0.0 Vmaxpu=1.2 model=1
New Load.motor_load_p6ulv9671_1 conn=wye bus1=p6ulv9671.1 kV=0.12 kW=1.2035298384948616 kvar=0.24070596769897235 Phases=1 Vminpu=0.0 Vmaxpu=1.2 model=1
New Load.motor_load_p6ulv9777_2 conn=wye bus1=p6ulv9777.2 kV=0.12 kW=1.1435235647717013 kvar=0.22870471295434025 Phases=1 Vminpu=0.0 Vmaxpu=1.2 model=1
New Load.motor_load_p6ulv9779_2 conn=wye bus1=p6ulv9779.2 kV=0.12 kW=1.1414922286396672 kvar=0.22829844572793345 Phases=1 Vminpu=0.0 Vmaxpu=1.2 model=1
New Load.motor_load_p6ulv9780_2 conn=wye bus1=p6ulv9780.2 kV=0.12 kW=1.1757867654620904 kvar=0.2351573530924181 Phases=1 Vminpu=0.0 Vmaxpu=1.2 model=1
New Load.motor_load_p6ulv9781_1 conn=wye bus1=p6ulv9781.1 kV=0.12 kW=1.1422293407312798 kvar=0.22844586814625598 Phases=1 Vminpu=0.0 Vmaxpu=1.2 model=1
New Load.motor_load_p6ulv9781_2 conn=wye bus1=p6ulv9781.2 kV=0.12 kW=1.0666984919413658 kvar=0.21333969838827316 Phases=1 Vminpu=0.0 Vmaxpu=1.2 model=1
New Load.motor_load_p6ulv10966_1 conn=wye bus1=p6ulv10966.1 kV=0.12 kW=1.1715596857755128 kvar=0.23431193715510257 Phases=1 Vminpu=0.0 Vmaxpu=1.2 model=1
New Load.motor_load_p6ulv10968_1 conn=wye bus1=p6ulv10968.1 kV=0.12 kW=1.0901042698714123 kvar=0.21802085397428247 Phases=1 Vminpu=0.0 Vmaxpu=1.2 model=1
New Load.motor_load_p6ulv10969_2 conn=wye bus1=p6ulv10969.2 kV=0.12 kW=1.067962513954334 kvar=0.21359250279086683 Phases=1 Vminpu=0.0 Vmaxpu=1.2 model=1
New Load.motor_load_p6ulv10971_1 conn=wye bus1=p6ulv10971.1 kV=0.12 kW=1.2395579269359245 kvar=0.2479115853871849 Phases=1 Vminpu=0.0 Vmaxpu=1.2 model=1
New Load.motor_load_p6ulv10972_1 conn=wye bus1=p6ulv10972.1 kV=0.12 kW=1.2471210061237463 kvar=0.2494242012247493 Phases=1 Vminpu=0.0 Vmaxpu=1.2 model=1
New Load.motor_load_p6ulv10973_1 conn=wye bus1=p6ulv10973.1 kV=0.12 kW=1.0653336493005023 kvar=0.21306672986010047 Phases=1 Vminpu=0.0 Vmaxpu=1.2 model=1
New Load.motor_load_p6ulv10973_2 conn=wye bus1=p6ulv10973.2 kV=0.12 kW=1.0624558936756319 kvar=0.21249117873512638 Phases=1 Vminpu=0.0 Vmaxpu=1.2 model=1
New Load.motor_load_p6ulv10974_2 conn=wye bus1=p6ulv10974.2 kV=0.12 kW=1.1660278068695522 kvar=0.23320556137391046 Phases=1 Vminpu=0.0 Vmaxpu=1.2 model=1
New Load.motor_load_p6ulv10976_1 conn=wye bus1=p6ulv10976.1 kV=0.12 kW=1.2399322862641573 kvar=0.24798645725283147 Phases=1 Vminpu=0.0 Vmaxpu=1.2 model=1
New Load.motor_load_p6ulv10978_2 conn=wye bus1=p6ulv10978.2 kV=0.12 kW=1.244130341945333 kvar=0.2488260683890666 Phases=1 Vminpu=0.0 Vmaxpu=1.2 model=1