New Generator.pv_load_p6ulv976_1 conn=wye bus1=p6ulv976.1 kV=0.12 model=7 kW=0.9468196151633689 kvar=-0.0 Phases=1
New Generator.pv_load_p6ulv5746_1 conn=wye bus1=p6ulv5746.1 kV=0.12 model=7 kW=0.45988394189711895 kvar=-0.0 Phases=1
New Generator.pv_load_p6ulv5746_2 conn=wye bus1=p6ulv5746.2 kV=0.12 model=7 kW=0.45988394189711895 kvar=-0.0 Phases=1
New Generator.pv_load_p6ulv5748_2 conn=wye bus1=p6ulv5748.2 kV=0.12 model=7 kW=0.2915605549485622 kvar=-0.0 Phases=1
New Generator.pv_load_p6ulv5749_1 conn=wye bus1=p6ulv5749.1 kV=0.12 model=7 kW=0.339652521827017 kvar=-0.0 Phases=1
New Generator.pv_load_p6ulv5750_2 conn=wye bus1=p6ulv5750.2 kV=0.12 model=7 kW=0.5335262690537179 kvar=-0.0 Phases=1
New Generator.pv_load_p6ulv5755_1 conn=wye bus1=p6ulv5755.1 kV=0.12 model=7 kW=0.28554905908875533 kvar=-0.0 Phases=1
New Generator.pv_load_p6ulv5755_2 conn=wye bus1=p6ulv5755.2 kV=0.12 model=7 kW=0.28554905908875533 kvar=-0.0 Phases=1
New Generator.pv_load_p6ulv5756_1 conn=wye bus1=p6ulv5756.1 kV=0.12 model=7 kW=0.360692757336341 kvar=-0.0 Phases=1
New Generator.pv_load_p6ulv5762_2 conn=wye bus1=p6ulv5762.2 kV=0.12 model=7 kW=0.31109791649293445 kvar=-0.0 Phases=1
New Generator.pv_load_p6ulv5766_2 conn=wye bus1=p6ulv5766.2 kV=0.12 model=7 kW=0.12774563960746405 kvar=-0.0 Phases=1
New Generator.pv_load_p6ulv5767_1 conn=wye bus1=p6ulv5767.1 kV=0.12 model=7 kW=0.22994272238554195 kvar=-0.0 Phases=1
New Generator.pv_load_p6ulv5773_2 conn=wye bus1=p6ulv5773.2 kV=0.12 model=7 kW=0.13676288339717432 kvar=-0.0 Phases=1
New Generator.pv_load_p6ulv5778_1 conn=wye bus1=p6ulv5778.1 kV=0.12 model=7 kW=0.24046284014020394 kvar=-0.0 Phases=1
New Generator.pv_load_p6ulv5779_2 conn=wye bus1=p6ulv5779.2 kV=0.12 model=7 kW=0.22392972365177016 kvar=-0.0 Phases=1
New Generator.pv_load_p6ulv5783_1 conn=wye bus1=p6ulv5783.1 kV=0.12 model=7 kW=0.19687799228263936 kvar=-0.0 Phases=1
New Generator.pv_load_p6ulv5783_2 conn=wye bus1=p6ulv5783.2 kV=0.12 model=7 kW=0.19687799228263936 kvar=-0.0 Phases=1
New Generator.pv_load_p6ulv5784_2 conn=wye bus1=p6ulv5784.2 kV=0.12 model=7 kW=0.2660116975443831 kvar=-0.0 Phases=1
New Generator.pv_load_p6ulv5800_1 conn=wye bus1=p6ulv5800.1 kV=0.12 model=7 kW=0.19838086624759108 kvar=-0.0 Phases=1
New Generator.pv_load_p6ulv5800_2 conn=wye bus1=p6ulv5800.2 kV=0.12 model=7 kW=0.19838086624759108 kvar=-0.0 Phases=1
New Generator.pv_load_p6ulv5804_2 conn=wye bus1=p6ulv5804.2 kV=0.12 model=7 kW=0.08566471772662661 kvar=-0.0 Phases=1
New Generator.pv_load_p6ulv5811_1 conn=wye bus1=p6ulv5811.1 kV=0.12 model=7 kW=0.27803468926399677 kvar=-0.0 Phases=1
New Generator.pv_load_p6ulv5812_2 conn=wye bus1=p6ulv5812.2 kV=0.12 model=7 kW=0.3126007904578862 kvar=-0.0 Phases=1
New Generator.pv_load_p6ulv5816_2 conn=wye bus1=p6ulv5816.2 kV=0.12 model=7 kW=0.3065892945980793 kvar=-0.0 Phases=1
New Generator.pv_load_p6ulv5818_2 conn=wye bus1=p6ulv5818.2 kV=0.12 model=7 kW=0.4959529170559602 kvar=-0.0 Phases=1
New Generator.pv_load_p6ulv5819_1 conn=wye bus1=p6ulv5819.1 kV=0.12 model=7 kW=0.22092397572186676 kvar=-0.0 Phases=1
New Generator.pv_load_p6ulv5819_2 conn=wye bus1=p6ulv5819.2 kV=0.12 model=7 kW=0.22092397572186676 kvar=-0.0 Phases=1
New Generator.pv_load_p6ulv5822_1 conn=wye bus1=p6ulv5822.1 kV=0.12 model=7 kW=0.2660116975443831 kvar=-0.0 Phases=1
New Generator.pv_load_p6ulv5823_1 conn=wye bus1=p6ulv5823.1 kV=0.12 model=7 kW=0.19988374021254274 kvar=-0.0 Phases=1
New Generator.pv_load_p6ulv5823_2 conn=wye bus1=p6ulv5823.2 kV=0.12 model=7 kW=0.19988374021254274 kvar=-0.0 Phases=1
New Generator.pv_load_p6ulv5825_2 conn=wye bus1=p6ulv5825.2 kV=0.12 model=7 kW=0.18485500056302565 kvar=-0.0 Phases=1
New Generator.pv_load_p6ulv5827_2 conn=wye bus1=p6ulv5827.2 kV=0.12 model=7 kW=0.2058952360723496 kvar=-0.0 Phases=1
New Generator.pv_load_p6ulv5828_1 conn=wye bus1=p6ulv5828.1 kV=0.12 model=7 kW=0.32762953010740326 kvar=-0.0 Phases=1
New Generator.pv_load_p6ulv5828_2 conn=wye bus1=p6ulv5828.2 kV=0.12 model=7 kW=0.32762953010740326 kvar=-0.0 Phases=1
New Generator.pv_load_p6ulv5841_1 conn=wye bus1=p6ulv5841.1 kV=0.12 model=7 kW=0.38624311761448504 kvar=-0.0 Phases=1
New Generator.pv_load_p6ulv5843_2 conn=wye bus1=p6ulv5843.2 kV=0.12 model=7 kW=0.2043923621073979 kvar=-0.0 Phases=1
New Generator.pv_load_p6ulv5846_1 conn=wye bus1=p6ulv5846.1 kV=0.12 model=7 kW=0.15179177333408797 kvar=-0.0 Phases=1
New Generator.pv_load_p6ulv5847_1 conn=wye bus1=p6ulv5847.1 kV=0.12 model=7 kW=0.11722537156540556 kvar=-0.0 Phases=1
New Generator.pv_load_p6ulv5849_1 conn=wye bus1=p6ulv5849.1 kV=0.12 model=7 kW=0.3065892945980793 kvar=-0.0 Phases=1
New Generator.pv_load_p6ulv5866_1 conn=wye bus1=p6ulv5866.1 kV=0.12 model=7 kW=0.3126007904578862 kvar=-0.0 Phases=1
New Generator.pv_load_p6ulv5867_2 conn=wye bus1=p6ulv5866.2 kV=0.12 model=7 kW=0.3802316217546783 kvar=-0.0 Phases=1
New Generator.pv_load_p6ulv5868_1 conn=wye bus1=p6ulv5868.1 kV=0.12 model=7 kW=0.21791822779196332 kvar=-0.0 Phases=1
New Generator.pv_load_p6ulv5876_1 conn=wye bus1=p6ulv5876.1 kV=0.12 model=7 kW=0.5004615389508152 kvar=-0.0 Phases=1
New Generator.pv_load_p6ulv5881_1 conn=wye bus1=p6ulv5881.1 kV=0.12 model=7 kW=0.2765318152990451 kvar=-0.0 Phases=1
New Generator.pv_load_p6ulv5885_1 conn=wye bus1=p6ulv5885.1 kV=0.12 model=7 kW=0.36670425319614786 kvar=-0.0 Phases=1
New Generator.pv_load_p6ulv5886_1 conn=wye bus1=p6ulv5886.1 kV=0.12 model=7 kW=0.3126007904578862 kvar=-0.0 Phases=1
New Generator.pv_load_p6ulv5886_2 conn=wye bus1=p6ulv5886.2 kV=0.12 model=7 kW=0.3126007904578862 kvar=-0.0 Phases=1
New Generator.pv_load_p6ulv5889_1 conn=wye bus1=p6ulv5889.1 kV=0.12 model=7 kW=0.3652013792311961 kvar=-0.0 Phases=1
New Generator.pv_load_p6ulv5893_1 conn=wye bus1=p6ulv5893.1 kV=0.12 model=7 kW=0.15479752126399138 kvar=-0.0 Phases=1
New Generator.pv_load_p6ulv5894_2 conn=wye bus1=p6ulv5894.2 kV=0.12 model=7 kW=0.28404618512380364 kvar=-0.0 Phases=1
New Generator.pv_load_p6ulv5897_1 conn=wye bus1=p6ulv5897.1 kV=0.12 model=7 kW=0.31109791649293445 kvar=-0.0 Phases=1
New Generator.pv_load_p6ulv5901_1 conn=wye bus1=p6ulv5901.1 kV=0.12 model=7 kW=0.22843984842059023 kvar=-0.0 Phases=1
New Generator.pv_load_p6ulv5902_2 conn=wye bus1=p6ulv5902.2 kV=0.12 model=7 kW=0.39676323536914704 kvar=-0.0 Phases=1
New Generator.pv_load_p6ulv5903_1 conn=wye bus1=p6ulv5903.1 kV=0.12 model=7 kW=0.22392972365177016 kvar=-0.0 Phases=1
New Generator.pv_load_p6ulv5907_2 conn=wye bus1=p6ulv5907.2 kV=0.12 model=7 kW=0.3050864206331276 kvar=-0.0 Phases=1
New Generator.pv_load_p6ulv5909_2 conn=wye bus1=p6ulv5909.2 kV=0.12 model=7 kW=0.3802316217546783 kvar=-0.0 Phases=1
New Generator.pv_load_p6ulv5910_1 conn=wye bus1=p6ulv5910.1 kV=0.12 model=7 kW=1.4487855309531008 kvar=-0.0 Phases=1
New Generator.pv_load_p6ulv5912_1 conn=wye bus1=p6ulv5912.1 kV=0.12 model=7 kW=0.4478609501775053 kvar=-0.0 Phases=1
New Generator.pv_load_p6ulv5918_2 conn=wye bus1=p6ulv5918.2 kV=0.12 model=7 kW=0.3546812614765341 kvar=-0.0 Phases=1
New Generator.pv_load_p6ulv5922_1 conn=wye bus1=p6ulv5922.1 kV=0.12 model=7 kW=0.1563003952289431 kvar=-0.0 Phases=1
New Generator.pv_load_p6ulv5926_2 conn=wye bus1=p6ulv5926.2 kV=0.12 model=7 kW=0.3832373696845817 kvar=-0.0 Phases=1
New Generator.pv_load_p6ulv5928_1 conn=wye bus1=p6ulv5928.1 kV=0.12 model=7 kW=0.3065892945980793 kvar=-0.0 Phases=1
New Generator.pv_load_p6ulv5930_1 conn=wye bus1=p6ulv5930.1 kV=0.12 model=7 kW=0.308092168563031 kvar=-0.0 Phases=1
New Generator.pv_load_p6ulv5934_1 conn=wye bus1=p6ulv5934.1 kV=0.12 model=7 kW=0.29907492477332076 kvar=-0.0 Phases=1
New Generator.pv_load_p6ulv5937_2 conn=wye bus1=p6ulv5937.2 kV=0.12 model=7 kW=0.21190673193215645 kvar=-0.0 Phases=1
New Generator.pv_load_p6ulv5938_2 conn=wye bus1=p6ulv5938.2 kV=0.12 model=7 kW=0.37872874778972654 kvar=-0.0 Phases=1
New Generator.pv_load_p6ulv5943_2 conn=wye bus1=p6ulv5943.2 kV=0.12 model=7 kW=0.21340960589710817 kvar=-0.0 Phases=1
New Generator.pv_load_p6ulv5945_1 conn=wye bus1=p6ulv5945.1 kV=0.12 model=7 kW=0.2344513442803971 kvar=-0.0 Phases=1
New Generator.pv_load_p6ulv5948_1 conn=wye bus1=p6ulv5948.1 kV=0.12 model=7 kW=0.31861228631769306 kvar=-0.0 Phases=1
New Generator.pv_load_p6ulv5950_2 conn=wye bus1=p6ulv5950.2 kV=0.12 model=7 kW=0.2915605549485622 kvar=-0.0 Phases=1
New Generator.pv_load_p6ulv5954_2 conn=wye bus1=p6ulv5954.2 kV=0.12 model=7 kW=0.2660116975443831 kvar=-0.0 Phases=1
New Generator.pv_load_p6ulv5955_1 conn=wye bus1=p6ulv5955.1 kV=0.12 model=7 kW=0.21040385796720473 kvar=-0.0 Phases=1
New Generator.pv_load_p6ulv5956_2 conn=wye bus1=p6ulv5956.2 kV=0.12 model=7 kW=0.3802316217546783 kvar=-0.0 Phases=1
New Generator.pv_load_p6ulv5958_1 conn=wye bus1=p6ulv5958.1 kV=0.12 model=7 kW=0.4313293365630364 kvar=-0.0 Phases=1
New Generator.pv_load_p6ulv5961_2 conn=wye bus1=p6ulv5961.2 kV=0.12 model=7 kW=0.20890098400225304 kvar=-0.0 Phases=1
New Generator.pv_load_p6ulv5963_2 conn=wye bus1=p6ulv5963.2 kV=0.12 model=7 kW=0.5049701608456704 kvar=-0.0 Phases=1
New Generator.pv_load_p6ulv5966_1 conn=wye bus1=p6ulv5966.1 kV=0.12 model=7 kW=0.46138681586207075 kvar=-0.0 Phases=1
New Generator.pv_load_p6ulv5969_1 conn=wye bus1=p6ulv5969.1 kV=0.12 model=7 kW=0.28404618512380364 kvar=-0.0 Phases=1
New Generator.pv_load_p6ulv5970_1 conn=wye bus1=p6ulv5970.1 kV=0.12 model=7 kW=0.49745579102091175 kvar=-0.0 Phases=1
New Generator.pv_load_p6ulv5972_1 conn=wye bus1=p6ulv5972.1 kV=0.12 model=7 kW=0.3621956313012927 kvar=-0.0 Phases=1
New Generator.pv_load_p6ulv5975_2 conn=wye bus1=p6ulv5975.2 kV=0.12 model=7 kW=0.25248583185981766 kvar=-0.0 Phases=1
New Generator.pv_load_p6ulv5978_1 conn=wye bus1=p6ulv5978.1 kV=0.12 model=7 kW=0.13826575736212604 kvar=-0.0 Phases=1
New Generator.pv_load_p6ulv5983_2 conn=wye bus1=p6ulv5983.2 kV=0.12 model=7 kW=0.5199989004951875 kvar=-0.0 Phases=1
New Generator.pv_load_p6ulv5989_2 conn=wye bus1=p6ulv5988.2 kV=0.12 model=7 kW=0.10820797748829879 kvar=-0.0 Phases=1
New Generator.pv_load_p6ulv5990_1 conn=wye bus1=p6ulv5990.1 kV=0.12 model=7 kW=0.35768700940643755 kvar=-0.0 Phases=1
New Generator.pv_load_p6ulv5994_2 conn=wye bus1=p6ulv5994.2 kV=0.12 model=7 kW=0.4373408324228433 kvar=-0.0 Phases=1
New Generator.pv_load_p6ulv5996_2 conn=wye bus1=p6ulv5996.2 kV=0.12 model=7 kW=0.37421862302090636 kvar=-0.0 Phases=1
New Generator.pv_load_p6ulv5998_1 conn=wye bus1=p6ulv5998.1 kV=0.12 model=7 kW=0.3020806727032242 kvar=-0.0 Phases=1
New Generator.pv_load_p6ulv6004_1 conn=wye bus1=p6ulv6004.1 kV=0.12 model=7 kW=0.22392972365177016 kvar=-0.0 Phases=1
New Generator.pv_load_p6ulv6007_2 conn=wye bus1=p6ulv6007.2 kV=0.12 model=7 kW=0.31109791649293445 kvar=-0.0 Phases=1
New Generator.pv_load_p6ulv6677_2 conn=wye bus1=p6ulv6677.2 kV=0.12 model=7 kW=0.22543410049068682 kvar=-0.0 Phases=1
New Generator.pv_load_p6ulv6679_2 conn=wye bus1=p6ulv6679.2 kV=0.12 model=7 kW=0.16231189108874994 kvar=-0.0 Phases=1
New Generator.pv_load_p6ulv6681_1 conn=wye bus1=p6ulv6681.1 kV=0.12 model=7 kW=0.5169931525652841 kvar=-0.0 Phases=1
New Generator.pv_load_p6ulv6686_2 conn=wye bus1=p6ulv6686.2 kV=0.12 model=7 kW=0.23294847031544538 kvar=-0.0 Phases=1
New Generator.pv_load_p6ulv6688_1 conn=wye bus1=p6ulv6688.1 kV=0.12 model=7 kW=0.24797720996496253 kvar=-0.0 Phases=1
New Generator.pv_load_p6ulv6692_1 conn=wye bus1=p6ulv6692.1 kV=0.12 model=7 kW=0.07965307157942327 kvar=-0.0 Phases=1
New Generator.pv_load_p6ulv6698_2 conn=wye bus1=p6ulv6698.2 kV=0.12 model=7 kW=0.07213870175466469 kvar=-0.0 Phases=1
New Generator.pv_load_p6ulv6699_2 conn=wye bus1=p6ulv6699.2 kV=0.12 model=7 kW=0.3126007904578862 kvar=-0.0 Phases=1
New Generator.pv_load_p6ulv9654_2 conn=wye bus1=p6ulv9654.2 kV=0.12 model=7 kW=0.29456630287846564 kvar=-0.0 Phases=1
New Generator.pv_load_p6ulv9656_1 conn=wye bus1=p6ulv9656.1 kV=0.12 model=7 kW=0.1352600094322226 kvar=-0.0 Phases=1
New Generator.pv_load_p6ulv9657_1 conn=wye bus1=p6ulv9657.1 kV=0.12 model=7 kW=0.11271674967055043 kvar=-0.0 Phases=1
New Generator.pv_load_p6ulv9657_2 conn=wye bus1=p6ulv9657.2 kV=0.12 model=7 kW=0.11271674967055043 kvar=-0.0 Phases=1
New Generator.pv_load_p6ulv9658_1 conn=wye bus1=p6ulv9658.1 kV=0.12 model=7 kW=0.3005777987382725 kvar=-0.0 Phases=1
New Generator.pv_load_p6ulv9663_1 conn=wye bus1=p6ulv9663.1 kV=0.12 model=7 kW=0.2810404371939002 kvar=-0.0 Phases=1
New Generator.pv_load_p6ulv9665_1 conn=wye bus1=p6ulv9665.1 kV=0.12 model=7 kW=0.23595421824534882 kvar=-0.0 Phases=1
New Generator.pv_load_p6ulv9665_2 conn=wye bus1=p6ulv9665.2 kV=0.12 model=7 kW=0.23595421824534882 kvar=-0.0 Phases=1
New Generator.pv_load_p6ulv9666_1 conn=wye bus1=p6ulv9666.1 kV=0.12 model=7 kW=0.2720231934041899 kvar=-0.0 Phases=1
New Generator.pv_load_p6ulv9667_1 conn=wye bus1=p6ulv9667.1 kV=0.12 model=7 kW=0.1818492526331222 kvar=-0.0 Phases=1
New Generator.pv_load_p6ulv9669_2 conn=wye bus1=p6ulv9669.2 kV=0.12 model=7 kW=0.21340960589710817 kvar=-0.0 Phases=1
New Generator.pv_load_p6ulv9670_1 conn=wye bus1=p6ulv9670.1 kV=0.12 model=7 kW=0.25098295789486597 kvar=-0.0 Phases=1
New Generator.pv_load_p6ulv9777_1 conn=wye bus1=p6ulv9777.1 kV=0.12 model=7 kW=0.21491247986205989 kvar=-0.0 Phases=1
New Generator.pv_load_p6ulv10966_1 conn=wye bus1=p6ulv10966.1 kV=0.12 model=7 kW=0.1923693703877842 kvar=-0.0 Phases=1
New Generator.pv_load_p6ulv10966_2 conn=wye bus1=p6ulv10966.2 kV=0.12 model=7 kW=0.1923693703877842 kvar=-0.0 Phases=1
New Generator.pv_load_p6ulv10967_1 conn=wye bus1=p6ulv10967.1 kV=0.12 model=7 kW=0.17132913487846022 kvar=-0.0 Phases=1
New Generator.pv_load_p6ulv10968_2 conn=wye bus1=p6ulv10968.2 kV=0.12 model=7 kW=0.08265896979672317 kvar=-0.0 Phases=1
New Generator.pv_load_p6ulv10971_2 conn=wye bus1=p6ulv10971.2 kV=0.12 model=7 kW=0.10971085145325049 kvar=-0.0 Phases=1
New Generator.pv_load_p6ulv10972_1 conn=wye bus1=p6ulv10972.1 kV=0.12 model=7 kW=0.2554915797897211 kvar=-0.0 Phases=1
New Generator.pv_load_p6ulv10973_1 conn=wye bus1=p6ulv10973.1 kV=0.12 model=7 kW=0.3020806727032242 kvar=-0.0 Phases=1
New Generator.pv_load_p6ulv10976_1 conn=wye bus1=p6ulv10976.1 kV=0.12 model=7 kW=0.28855480701865877 kvar=-0.0 Phases=1
New Generator.pv_load_p6ulv10977_2 conn=wye bus1=p6ulv10977.2 kV=0.12 model=7 kW=0.17132913487846022 kvar=-0.0 Phases=1
New Generator.pv_load_p6ulv10980_1 conn=wye bus1=p6ulv10980.1 kV=0.12 model=7 kW=0.27352606736914165 kvar=-0.0 Phases=1
New Generator.pv_load_p6ulv10983_2 conn=wye bus1=p6ulv10983.2 kV=0.12 model=7 kW=0.2795375632289485 kvar=-0.0 Phases=1
New Generator.pv_load_p6ulv10985_1 conn=wye bus1=p6ulv10985.1 kV=0.12 model=7 kW=0.07514444968456813 kvar=-0.0 Phases=1
New Generator.pv_load_p6ulv10988_1 conn=wye bus1=p6ulv10988.1 kV=0.12 model=7 kW=0.1803463786681705 kvar=-0.0 Phases=1
New Generator.pv_load_p6ulv10989_1 conn=wye bus1=p6ulv10989.1 kV=0.12 model=7 kW=0.3832373696845817 kvar=-0.0 Phases=1
New Generator.pv_load_p6ulv10991_1 conn=wye bus1=p6ulv10991.1 kV=0.12 model=7 kW=0.27502894133409334 kvar=-0.0 Phases=1
New Generator.pv_load_p6ulv10992_2 conn=wye bus1=p6ulv10992.2 kV=0.12 model=7 kW=0.24797720996496253 kvar=-0.0 Phases=1
New Generator.pv_load_p6ulv10993_1 conn=wye bus1=p6ulv10993.1 kV=0.12 model=7 kW=0.35768700940643755 kvar=-0.0 Phases=1
New Generator.pv_load_p6ulv10993_2 conn=wye bus1=p6ulv10993.2 kV=0.12 model=7 kW=0.35768700940643755 kvar=-0.0 Phases=1
New Generator.pv_load_p6ulv10994_1 conn=wye bus1=p6ulv10994.1 kV=0.12 model=7 kW=0.3727157490559547 kvar=-0.0 Phases=1
New Generator.pv_load_p6ulv10995_2 conn=wye bus1=p6ulv10995.2 kV=0.12 model=7 kW=0.07664732364951983 kvar=-0.0 Phases=1
New Generator.pv_load_p6ulv10996_2 conn=wye bus1=p6ulv10996.2 kV=0.12 model=7 kW=0.41028910105371247 kvar=-0.0 Phases=1
New Generator.pv_load_p6ulv10998_1 conn=wye bus1=p6ulv10998.1 kV=0.12 model=7 kW=0.13826575736212604 kvar=-0.0 Phases=1
New Generator.pv_load_p6ulv10999_2 conn=wye bus1=p6ulv10999.2 kV=0.12 model=7 kW=0.16832338694855678 kvar=-0.0 Phases=1
New Generator.pv_load_p6ulv11000_1 conn=wye bus1=p6ulv11000.1 kV=0.12 model=7 kW=0.3937574874392436 kvar=-0.0 Phases=1
New Generator.pv_load_p6ulv11002_1 conn=wye bus1=p6ulv11002.1 kV=0.12 model=7 kW=0.2720231934041899 kvar=-0.0 Phases=1
New Generator.pv_load_p6ulv11004_2 conn=wye bus1=p6ulv11004.2 kV=0.12 model=7 kW=0.32161803424759644 kvar=-0.0 Phases=1
New Generator.pv_load_p6ulv11005_1 conn=wye bus1=p6ulv11005.1 kV=0.12 model=7 kW=0.22994272238554195 kvar=-0.0 Phases=1
New Generator.pv_load_p6ulv11011_1 conn=wye bus1=p6ulv11011.1 kV=0.12 model=7 kW=0.15930614315884653 kvar=-0.0 Phases=1
New Generator.pv_load_p6ulv11017_1 conn=wye bus1=p6ulv11017.1 kV=0.12 model=7 kW=0.20288948814244617 kvar=-0.0 Phases=1
New Generator.pv_load_p6ulv11017_2 conn=wye bus1=p6ulv11017.2 kV=0.12 model=7 kW=0.20288948814244617 kvar=-0.0 Phases=1
New Generator.pv_load_p6ulv11020_1 conn=wye bus1=p6ulv11020.1 kV=0.12 model=7 kW=0.18786074849292905 kvar=-0.0 Phases=1
New Generator.pv_load_p6ulv11023_1 conn=wye bus1=p6ulv11023.1 kV=0.12 model=7 kW=0.19838086624759108 kvar=-0.0 Phases=1
New Generator.pv_load_p6ulv11024_1 conn=wye bus1=p6ulv11024.1 kV=0.12 model=7 kW=0.17433488280836365 kvar=-0.0 Phases=1
New Generator.pv_load_p6ulv11025_2 conn=wye bus1=p6ulv11025.2 kV=0.12 model=7 kW=0.15780326919389484 kvar=-0.0 Phases=1
New Generator.pv_load_p6ulv11030_2 conn=wye bus1=p6ulv11030.2 kV=0.12 model=7 kW=0.12924851357241576 kvar=-0.0 Phases=1
New Generator.pv_load_p6ulv11031_2 conn=wye bus1=p6ulv11031.2 kV=0.12 model=7 kW=0.20739811003730133 kvar=-0.0 Phases=1
New Generator.pv_load_p6ulv11032_1 conn=wye bus1=p6ulv11032.1 kV=0.12 model=7 kW=0.4568781939672155 kvar=-0.0 Phases=1
New Generator.pv_load_p6ulv11033_2 conn=wye bus1=p6ulv11033.2 kV=0.12 model=7 kW=0.6522533122849032 kvar=-0.0 Phases=1
New Generator.pv_load_p6ulv11035_1 conn=wye bus1=p6ulv11035.1 kV=0.12 model=7 kW=1.076068279023181 kvar=-0.0 Phases=1
New Generator.pv_load_p6ulv11045_2 conn=wye bus1=p6ulv11045.2 kV=0.12 model=7 kW=0.2810404371939002 kvar=-0.0 Phases=1
New Generator.pv_load_p6ulv11046_2 conn=wye bus1=p6ulv11046.2 kV=0.12 model=7 kW=0.21340960589710817 kvar=-0.0 Phases=1
New Generator.pv_load_p6ulv11050_1 conn=wye bus1=p6ulv11050.1 kV=0.12 model=7 kW=0.32161803424759644 kvar=-0.0 Phases=1
New Generator.pv_load_p6ulv11052_1 conn=wye bus1=p6ulv11052.1 kV=0.12 model=7 kW=0.33514389993216187 kvar=-0.0 Phases=1
New Generator.pv_load_p6ulv11053_2 conn=wye bus1=p6ulv11053.2 kV=0.12 model=7 kW=0.09167621358643346 kvar=-0.0 Phases=1
New Generator.pv_load_p6ulv11056_2 conn=wye bus1=p6ulv11056.2 kV=0.12 model=7 kW=0.08566471772662661 kvar=-0.0 Phases=1
New Generator.pv_load_p6ulv11059_1 conn=wye bus1=p6ulv11059.1 kV=0.12 model=7 kW=0.36820712716109955 kvar=-0.0 Phases=1
New Generator.pv_load_p6ulv11060_1 conn=wye bus1=p6ulv11060.1 kV=0.12 model=7 kW=0.2900576809836105 kvar=-0.0 Phases=1
New Generator.pv_load_p6ulv11061_2 conn=wye bus1=p6ulv11061.2 kV=0.12 model=7 kW=0.10369935559344366 kvar=-0.0 Phases=1
New Generator.pv_load_p6ulv11062_1 conn=wye bus1=p6ulv11062.1 kV=0.12 model=7 kW=0.18936362245788077 kvar=-0.0 Phases=1
New Generator.pv_load_p6ulv11063_1 conn=wye bus1=p6ulv11063.1 kV=0.12 model=7 kW=0.21791822779196332 kvar=-0.0 Phases=1
New Generator.pv_load_p6ulv11064_1 conn=wye bus1=p6ulv11064.1 kV=0.12 model=7 kW=0.23895996617525225 kvar=-0.0 Phases=1
New Generator.pv_load_p6ulv11065_2 conn=wye bus1=p6ulv11065.2 kV=0.12 model=7 kW=0.2705203194392382 kvar=-0.0 Phases=1
New Generator.pv_load_p6ulv11068 conn=wye bus1=p6ulv11068.1.2.3 kV=0.48 model=7 kW=25.501005897135055 kvar=-0.0 Phases=3
New Generator.pv_load_p6ulv11073_1 conn=wye bus1=p6ulv11073.1 kV=0.12 model=7 kW=0.42231209277332615 kvar=-0.0 Phases=1
New Generator.pv_load_p6ulv11076_2 conn=wye bus1=p6ulv11076.2 kV=0.12 model=7 kW=1.0264734381797744 kvar=-0.0 Phases=1
New Generator.pv_load_p6ulv11078_1 conn=wye bus1=p6ulv11078.1 kV=0.12 model=7 kW=0.2960691768434174 kvar=-0.0 Phases=1
New Generator.pv_load_p6ulv11082_1 conn=wye bus1=p6ulv11082.1 kV=0.12 model=7 kW=1.4322539173386317 kvar=-0.0 Phases=1
New Generator.pv_load_p6ulv11086_1 conn=wye bus1=p6ulv11086.1 kV=0.12 model=7 kW=0.2058952360723496 kvar=-0.0 Phases=1
New Generator.pv_load_p6ulv11086_2 conn=wye bus1=p6ulv11086.2 kV=0.12 model=7 kW=0.2058952360723496 kvar=-0.0 Phases=1
New Generator.pv_load_p6ulv11091_2 conn=wye bus1=p6ulv11091.2 kV=0.12 model=7 kW=0.5996527235115933 kvar=-0.0 Phases=1
New Generator.pv_load_p6ulv11092_2 conn=wye bus1=p6ulv11092.2 kV=0.12 model=7 kW=0.7078611518620814 kvar=-0.0 Phases=1
New Generator.pv_load_p6ulv11094_1 conn=wye bus1=p6ulv11094.1 kV=0.12 model=7 kW=0.2164153538270116 kvar=-0.0 Phases=1
New Generator.pv_load_p6ulv11097_2 conn=wye bus1=p6ulv11097.2 kV=0.12 model=7 kW=0.15028889936913625 kvar=-0.0 Phases=1
New Generator.pv_load_p6ulv11106_2 conn=wye bus1=p6ulv11106.2 kV=0.12 model=7 kW=0.10670510352334708 kvar=-0.0 Phases=1
New Generator.pv_load_p6ulv11108_1 conn=wye bus1=p6ulv11108.1 kV=0.12 model=7 kW=0.14728315143923282 kvar=-0.0 Phases=1
New Generator.pv_load_p6ulv11109_1 conn=wye bus1=p6ulv11109.1 kV=0.12 model=7 kW=0.3621956313012927 kvar=-0.0 Phases=1
New Generator.pv_load_p6ulv11110_1 conn=wye bus1=p6ulv11110.1 kV=0.12 model=7 kW=0.8175709513035566 kvar=-0.0 Phases=1
New Generator.pv_load_p6ulv11111_1 conn=wye bus1=p6ulv11111.1 kV=0.12 model=7 kW=0.9693627246376444 kvar=-0.0 Phases=1
New Generator.pv_load_p6ulv11111_2 conn=wye bus1=p6ulv11111.2 kV=0.12 model=7 kW=0.9693627246376444 kvar=-0.0 Phases=1
New Generator.pv_load_p6ulv11119_1 conn=wye bus1=p6ulv11119.1 kV=0.12 model=7 kW=0.22092397572186676 kvar=-0.0 Phases=1
New Generator.pv_load_p6ulv11125_2 conn=wye bus1=p6ulv11125.2 kV=0.12 model=7 kW=0.3231209082125482 kvar=-0.0 Phases=1
New Generator.pv_load_p6ulv11131_1 conn=wye bus1=p6ulv11131.1 kV=0.12 model=7 kW=0.17884350470321878 kvar=-0.0 Phases=1
New Generator.pv_load_p6ulv11131_2 conn=wye bus1=p6ulv11131.2 kV=0.12 model=7 kW=0.17884350470321878 kvar=-0.0 Phases=1
New Generator.pv_load_p6ulv11135_2 conn=wye bus1=p6ulv11135.2 kV=0.12 model=7 kW=0.2539887058247694 kvar=-0.0 Phases=1
New Generator.pv_load_p6ulv11137_1 conn=wye bus1=p6ulv11137.1 kV=0.12 model=7 kW=0.2810404371939002 kvar=-0.0 Phases=1
New Generator.pv_load_p6ulv11138_1 conn=wye bus1=p6ulv11138.1 kV=0.12 model=7 kW=0.20288948814244617 kvar=-0.0 Phases=1
New Generator.pv_load_p6ulv11151_2 conn=wye bus1=p6ulv11151.2 kV=0.12 model=7 kW=0.2765318152990451 kvar=-0.0 Phases=1
New Generator.pv_load_p6ulv11159_1 conn=wye bus1=p6ulv11159.1 kV=0.12 model=7 kW=0.5109816567054772 kvar=-0.0 Phases=1
New Generator.pv_load_p6ulv11161_2 conn=wye bus1=p6ulv11161.2 kV=0.12 model=7 kW=0.42381496673827795 kvar=-0.0 Phases=1
New Generator.pv_load_p6ulv11165_2 conn=wye bus1=p6ulv11165.2 kV=0.12 model=7 kW=0.7394215051260675 kvar=-0.0 Phases=1
New Generator.pv_load_p6ulv11167 conn=wye bus1=p6ulv11167.1.2.3 kV=0.48 model=7 kW=17.144966537044933 kvar=-0.0 Phases=3
New Generator.pv_load_p6ulv11168_1 conn=wye bus1=p6ulv11168.1 kV=0.12 model=7 kW=0.757455992705488 kvar=-0.0 Phases=1
New Generator.pv_load_p6ulv11170_1 conn=wye bus1=p6ulv11170.1 kV=0.12 model=7 kW=0.18635787452797736 kvar=-0.0 Phases=1
New Generator.pv_load_p6ulv11172_1 conn=wye bus1=p6ulv11172.1 kV=0.12 model=7 kW=0.12473974139016412 kvar=-0.0 Phases=1
New Generator.pv_load_p6ulv11173_1 conn=wye bus1=p6ulv11173.1 kV=0.12 model=7 kW=0.17734063073826706 kvar=-0.0 Phases=1
New Generator.pv_load_p6ulv11174_2 conn=wye bus1=p6ulv11174.2 kV=0.12 model=7 kW=0.12173399346026069 kvar=-0.0 Phases=1
New Generator.pv_load_p6ulv11176_1 conn=wye bus1=p6ulv11176.1 kV=0.12 model=7 kW=0.1698262609135085 kvar=-0.0 Phases=1
New Generator.pv_load_p6ulv11178_2 conn=wye bus1=p6ulv11178.2 kV=0.12 model=7 kW=0.1322542615023192 kvar=-0.0 Phases=1
New Generator.pv_load_p6ulv11179_1 conn=wye bus1=p6ulv11179.1 kV=0.12 model=7 kW=0.15179177333408797 kvar=-0.0 Phases=1
New Generator.pv_load_p6ulv11182_2 conn=wye bus1=p6ulv11182.2 kV=0.12 model=7 kW=0.16381476505370163 kvar=-0.0 Phases=1
New Generator.pv_load_p6ulv11186_1 conn=wye bus1=p6ulv11186.1 kV=0.12 model=7 kW=0.16682051298360506 kvar=-0.0 Phases=1
New Generator.pv_load_p6ulv11187_1 conn=wye bus1=p6ulv11187.1 kV=0.12 model=7 kW=0.26300594961447965 kvar=-0.0 Phases=1
New Generator.pv_load_p6ulv11190_1 conn=wye bus1=p6ulv11190.1 kV=0.12 model=7 kW=0.2660116975443831 kvar=-0.0 Phases=1
New Generator.pv_load_p6ulv11192_2 conn=wye bus1=p6ulv11192.2 kV=0.12 model=7 kW=0.11121372541820221 kvar=-0.0 Phases=1
New Generator.pv_load_p6ulv11195_2 conn=wye bus1=p6ulv11195.2 kV=0.12 model=7 kW=0.15028889936913625 kvar=-0.0 Phases=1
New Generator.pv_load_p6ulv11201_1 conn=wye bus1=p6ulv11201.1 kV=0.12 model=7 kW=0.18485500056302565 kvar=-0.0 Phases=1
New Generator.pv_load_p6ulv11202_1 conn=wye bus1=p6ulv11202.1 kV=0.12 model=7 kW=0.1352600094322226 kvar=-0.0 Phases=1
New Generator.pv_load_p6ulv11207_1 conn=wye bus1=p6ulv11207.1 kV=0.12 model=7 kW=0.17283200884341193 kvar=-0.0 Phases=1
New Generator.pv_load_p6ulv11208_2 conn=wye bus1=p6ulv11208.2 kV=0.12 model=7 kW=0.14728315143923282 kvar=-0.0 Phases=1
New Generator.pv_load_p6ulv11210_1 conn=wye bus1=p6ulv11210.1 kV=0.12 model=7 kW=0.15780326919389484 kvar=-0.0 Phases=1
New Generator.pv_load_p6ulv11213_2 conn=wye bus1=p6ulv11213.2 kV=0.12 model=7 kW=0.1908664964228325 kvar=-0.0 Phases=1
New Generator.pv_load_p6ulv11214_1 conn=wye bus1=p6ulv11214.1 kV=0.12 model=7 kW=0.16231189108874994 kvar=-0.0 Phases=1
New Generator.pv_load_p6ulv11221_2 conn=wye bus1=p6ulv11221.2 kV=0.12 model=7 kW=0.120231119495309 kvar=-0.0 Phases=1
New Generator.pv_load_p6ulv11222_2 conn=wye bus1=p6ulv11222.2 kV=0.12 model=7 kW=0.15780326919389484 kvar=-0.0 Phases=1
New Generator.pv_load_p6ulv11223_2 conn=wye bus1=p6ulv11223.2 kV=0.12 model=7 kW=0.24797720996496253 kvar=-0.0 Phases=1
New Generator.pv_load_p6ulv11225_1 conn=wye bus1=p6ulv11225.1 kV=0.12 model=7 kW=0.16231189108874994 kvar=-0.0 Phases=1
New Generator.pv_load_p6ulv11227_2 conn=wye bus1=p6ulv11227.2 kV=0.12 model=7 kW=0.09017333962148176 kvar=-0.0 Phases=1
New Generator.pv_load_p6ulv11228_1 conn=wye bus1=p6ulv11228.1 kV=0.12 model=7 kW=0.15028889936913625 kvar=-0.0 Phases=1
New Generator.pv_load_p6ulv11232_1 conn=wye bus1=p6ulv11232.1 kV=0.12 model=7 kW=0.17132913487846022 kvar=-0.0 Phases=1
New Generator.pv_load_p6ulv11232_2 conn=wye bus1=p6ulv11232.2 kV=0.12 model=7 kW=0.17132913487846022 kvar=-0.0 Phases=1
New Generator.pv_load_p6ulv11234_2 conn=wye bus1=p6ulv11234.2 kV=0.12 model=7 kW=0.16381476505370163 kvar=-0.0 Phases=1
New Generator.pv_load_p6ulv11237_1 conn=wye bus1=p6ulv11237.1 kV=0.12 model=7 kW=0.1563003952289431 kvar=-0.0 Phases=1
New Generator.pv_load_p6ulv11239_2 conn=wye bus1=p6ulv11239.2 kV=0.12 model=7 kW=0.12173399346026069 kvar=-0.0 Phases=1
New Generator.pv_load_p6ulv11245_2 conn=wye bus1=p6ulv11245.2 kV=0.12 model=7 kW=0.10971085145325049 kvar=-0.0 Phases=1
New Generator.pv_load_p6ulv11246_1 conn=wye bus1=p6ulv11246.1 kV=0.12 model=7 kW=0.13976863132707776 kvar=-0.0 Phases=1
New Generator.pv_load_p6ulv11248_2 conn=wye bus1=p6ulv11248.2 kV=0.12 model=7 kW=0.1352600094322226 kvar=-0.0 Phases=1
New Generator.pv_load_p6ulv11251_1 conn=wye bus1=p6ulv11251.1 kV=0.12 model=7 kW=0.08716759169157832 kvar=-0.0 Phases=1
New Generator.pv_load_p6ulv11251_2 conn=wye bus1=p6ulv11251.2 kV=0.12 model=7 kW=0.08716759169157832 kvar=-0.0 Phases=1
New Generator.pv_load_p6ulv11252_1 conn=wye bus1=p6ulv11252.1 kV=0.12 model=7 kW=0.08416184376167489 kvar=-0.0 Phases=1
New Generator.pv_load_p6ulv11252_2 conn=wye bus1=p6ulv11252.2 kV=0.12 model=7 kW=0.08416184376167489 kvar=-0.0 Phases=1
New Generator.pv_load_p6ulv11253_1 conn=wye bus1=p6ulv11253.1 kV=0.12 model=7 kW=0.12473974139016412 kvar=-0.0 Phases=1
New Generator.pv_load_p6ulv11253_2 conn=wye bus1=p6ulv11253.2 kV=0.12 model=7 kW=0.12473974139016412 kvar=-0.0 Phases=1
New Generator.pv_load_p6ulv11255_2 conn=wye bus1=p6ulv11255.2 kV=0.12 model=7 kW=0.09618483548128859 kvar=-0.0 Phases=1
New Generator.pv_load_p6ulv11264_1 conn=wye bus1=p6ulv11264.1 kV=0.12 model=7 kW=0.2660116975443831 kvar=-0.0 Phases=1
New Generator.pv_load_p6ulv11267_1 conn=wye bus1=p6ulv11267.1 kV=0.12 model=7 kW=0.17283200884341193 kvar=-0.0 Phases=1
New Generator.pv_load_p6ulv11268_2 conn=wye bus1=p6ulv11268.2 kV=0.12 model=7 kW=0.19387224435273592 kvar=-0.0 Phases=1
New Generator.pv_load_p6ulv11270_1 conn=wye bus1=p6ulv11270.1 kV=0.12 model=7 kW=0.20138661417749446 kvar=-0.0 Phases=1
New Generator.pv_load_p6ulv11272_2 conn=wye bus1=p6ulv11272.2 kV=0.12 model=7 kW=0.10820797748829879 kvar=-0.0 Phases=1
New Generator.pv_load_p6ulv11280_2 conn=wye bus1=p6ulv11280.2 kV=0.12 model=7 kW=0.5169931525652841 kvar=-0.0 Phases=1
New Generator.pv_load_p6ulv11284_1 conn=wye bus1=p6ulv11284.1 kV=0.12 model=7 kW=0.24196571410515566 kvar=-0.0 Phases=1
New Generator.pv_load_p6ulv11289_2 conn=wye bus1=p6ulv11289.2 kV=0.12 model=7 kW=0.19687799228263936 kvar=-0.0 Phases=1
New Generator.pv_load_p6ulv11290_2 conn=wye bus1=p6ulv11290.2 kV=0.12 model=7 kW=0.1818492526331222 kvar=-0.0 Phases=1
New Generator.pv_load_p6ulv11292_1 conn=wye bus1=p6ulv11292.1 kV=0.12 model=7 kW=0.3156065383877897 kvar=-0.0 Phases=1
New Generator.pv_load_p6ulv11293_2 conn=wye bus1=p6ulv11293.2 kV=0.12 model=7 kW=0.1908664964228325 kvar=-0.0 Phases=1
New Generator.pv_load_p6ulv11298_1 conn=wye bus1=p6ulv11298.1 kV=0.12 model=7 kW=0.10820797748829879 kvar=-0.0 Phases=1
New Generator.pv_load_p6ulv11298_2 conn=wye bus1=p6ulv11298.2 kV=0.12 model=7 kW=0.10820797748829879 kvar=-0.0 Phases=1
New Generator.pv_load_p6ulv11299_2 conn=wye bus1=p6ulv11299.2 kV=0.12 model=7 kW=0.25699445375467284 kvar=-0.0 Phases=1
New Generator.pv_load_p6ulv11302_1 conn=wye bus1=p6ulv11302.1 kV=0.12 model=7 kW=0.15930614315884653 kvar=-0.0 Phases=1
New Generator.pv_load_p6ulv11305_1 conn=wye bus1=p6ulv11305.1 kV=0.12 model=7 kW=0.18936362245788077 kvar=-0.0 Phases=1
New Generator.pv_load_p6ulv11306_2 conn=wye bus1=p6ulv11306.2 kV=0.12 model=7 kW=0.17583775677331534 kvar=-0.0 Phases=1
New Generator.pv_load_p6ulv11308_1 conn=wye bus1=p6ulv11308.1 kV=0.12 model=7 kW=0.06312130767755791 kvar=-0.0 Phases=1