New Load.load_p6ulv3028 conn=wye bus1=p6ulv3028.1.2.3 kV=0.48 Vminpu=0.8 Vmaxpu=1.2 model=1 kva=1.00001 pf=1.0 Phases=3
New Load.load_p6ulv3029 conn=wye bus1=p6ulv3029.1.2.3 kV=0.48 Vminpu=0.8 Vmaxpu=1.2 model=1 kva=0.550006 pf=1.0 Phases=3
New Load.load_p6ulv22234 conn=wye bus1=p6ulv22234.1.2.3 kV=0.48 Vminpu=0.8 Vmaxpu=1.2 model=1 kva=0.870009 pf=1.0 Phases=3
New Load.load_p6ulv22872 conn=wye bus1=p6ulv22872.1.2.3 kV=0.48 Vminpu=0.8 Vmaxpu=1.2 model=1 kva=0.860009 pf=1.0 Phases=3
New Load.load_p6ulv23846 conn=wye bus1=p6ulv23846.1.2.3 kV=0.48 Vminpu=0.8 Vmaxpu=1.2 model=1 kva=2.5200299999999998 pf=1.0 Phases=3
New Load.load_p6ulv23848 conn=wye bus1=p6ulv23848.1.2.3 kV=0.48 Vminpu=0.8 Vmaxpu=1.2 model=1 kva=1.49001 pf=1.0 Phases=3
New Load.load_p6ulv23849 conn=wye bus1=p6ulv23849.1.2.3 kV=0.48 Vminpu=0.8 Vmaxpu=1.2 model=1 kva=1.88002 pf=1.0 Phases=3
New Load.load_p6ulv23851 conn=wye bus1=p6ulv23851.1.2.3 kV=0.48 Vminpu=0.8 Vmaxpu=1.2 model=1 kva=1.4800100000000003 pf=1.0 Phases=3
New Load.load_p6ulv23852 conn=wye bus1=p6ulv23852.1.2.3 kV=0.48 Vminpu=0.8 Vmaxpu=1.2 model=1 kva=1.3000100000000003 pf=1.0 Phases=3
New Load.load_p6ulv23853 conn=wye bus1=p6ulv23853.1.2.3 kV=0.48 Vminpu=0.8 Vmaxpu=1.2 model=1 kva=1.87002 pf=1.0 Phases=3
New Load.load_p6ulv23854 conn=wye bus1=p6ulv23854.1.2.3 kV=0.48 Vminpu=0.8 Vmaxpu=1.2 model=1 kva=2.58003 pf=1.0 Phases=3
New Load.load_p6ulv23855 conn=wye bus1=p6ulv23855.1.2.3 kV=0.48 Vminpu=0.8 Vmaxpu=1.2 model=1 kva=5.47005 pf=1.0 Phases=3
New Load.load_p6ulv23856 conn=wye bus1=p6ulv23856.1.2.3 kV=0.48 Vminpu=0.8 Vmaxpu=1.2 model=1 kva=1.77002 pf=1.0 Phases=3
New Load.load_p6ulv23857 conn=wye bus1=p6ulv23857.1.2.3 kV=0.48 Vminpu=0.8 Vmaxpu=1.2 model=1 kva=1.59002 pf=1.0 Phases=3
New Load.load_p6ulv23858 conn=wye bus1=p6ulv23858.1.2.3 kV=0.48 Vminpu=0.8 Vmaxpu=1.2 model=1 kva=1.94002 pf=1.0 Phases=3
New Load.load_p6ulv23859 conn=wye bus1=p6ulv23859.1.2.3 kV=0.48 Vminpu=0.8 Vmaxpu=1.2 model=1 kva=1.99002 pf=1.0 Phases=3
New Load.load_p6ulv23860 conn=wye bus1=p6ulv23860.1.2.3 kV=0.48 Vminpu=0.8 Vmaxpu=1.2 model=1 kva=2.0500199999999995 pf=1.0 Phases=3
New Load.load_p6ulv23861 conn=wye bus1=p6ulv23861.1.2.3 kV=0.48 Vminpu=0.8 Vmaxpu=1.2 model=1 kva=0.8200079999999998 pf=1.0 Phases=3
New Load.load_p6ulv23864 conn=wye bus1=p6ulv23864.1.2.3 kV=0.48 Vminpu=0.8 Vmaxpu=1.2 model=1 kva=0.98001 pf=1.0 Phases=3
New Load.load_p6ulv23865 conn=wye bus1=p6ulv23865.1.2.3 kV=0.48 Vminpu=0.8 Vmaxpu=1.2 model=1 kva=0.580006 pf=1.0 Phases=3
New Load.load_p6ulv23866 conn=wye bus1=p6ulv23866.1.2.3 kV=0.48 Vminpu=0.8 Vmaxpu=1.2 model=1 kva=2.62003 pf=1.0 Phases=3
New Load.load_p6ulv23868 conn=wye bus1=p6ulv23868.1.2.3 kV=0.48 Vminpu=0.8 Vmaxpu=1.2 model=1 kva=2.68003 pf=1.0 Phases=3
New Load.load_p6ulv23869 conn=wye bus1=p6ulv23869.1.2.3 kV=0.48 Vminpu=0.8 Vmaxpu=1.2 model=1 kva=2.20002 pf=1.0 Phases=3
New Load.load_p6ulv26743 conn=wye bus1=p6ulv26743.1.2.3 kV=0.48 Vminpu=0.8 Vmaxpu=1.2 model=1 kva=1.10001 pf=1.0 Phases=3
New Load.load_p6ulv26745 conn=wye bus1=p6ulv26745.1.2.3 kV=0.48 Vminpu=0.8 Vmaxpu=1.2 model=1 kva=0.6700070000000001 pf=1.0 Phases=3
New Load.load_p6ulv26746 conn=wye bus1=p6ulv26746.1.2.3 kV=0.48 Vminpu=0.8 Vmaxpu=1.2 model=1 kva=1.55002 pf=1.0 Phases=3
New Load.load_p6ulv26747 conn=wye bus1=p6ulv26747.1.2.3 kV=0.48 Vminpu=0.8 Vmaxpu=1.2 model=1 kva=0.860009 pf=1.0 Phases=3
